333
conformation = 21
H 	 1.294863 	 -6.799741 	 2.662261 
H 	 0.565698 	 -5.512688 	 2.146527 
H 	 -2.541928 	 -6.942150 	 -0.999006 
H 	 -1.443294 	 -6.969591 	 -2.034613 
H 	 -4.360775 	 6.211123 	 2.115439 
H 	 -3.246846 	 5.983939 	 1.052727 
H 	 -6.558085 	 -3.045589 	 -6.917584 
H 	 6.799178 	 -2.921709 	 -6.713897 
H 	 -6.763945 	 0.631776 	 -6.014782 
H 	 -5.613777 	 -0.222960 	 -6.493879 
H 	 -2.057278 	 -4.748887 	 -0.483710 
H 	 -2.240982 	 -3.206748 	 -0.643416 
H 	 0.907842 	 -3.203004 	 -1.181958 
H 	 1.352377 	 -4.650952 	 -1.384163 
H 	 3.395735 	 -3.848534 	 1.590068 
H 	 2.051157 	 -3.679914 	 0.931070 
H 	 2.979212 	 0.838666 	 -3.412042 
H 	 1.699354 	 -0.000202 	 -3.130847 
H 	 5.018863 	 -5.600845 	 -4.341098 
H 	 6.534044 	 -5.967334 	 -4.424848 
H 	 -1.072007 	 6.312917 	 0.977848 
H 	 -1.657370 	 -7.418508 	 1.853575 
H 	 1.439555 	 5.390660 	 0.054177 
H 	 0.403915 	 4.377217 	 0.699842 
H 	 3.740717 	 -6.852224 	 3.296502 
H 	 3.332977 	 6.610446 	 3.396197 
H 	 7.049875 	 5.518389 	 6.758443 
H 	 6.299210 	 4.472635 	 5.864104 
H 	 -6.601887 	 -2.961091 	 5.757807 
H 	 -5.822849 	 -3.364897 	 4.355186 
H 	 3.447529 	 6.374649 	 6.236570 
H 	 3.172207 	 4.967681 	 5.873296 
H 	 6.523877 	 -6.208465 	 4.055987 
H 	 6.960866 	 -4.677251 	 4.248048 
H 	 -1.285331 	 -3.541236 	 3.003672 
H 	 -1.362681 	 -3.725937 	 1.475309 
H 	 6.955819 	 4.011809 	 -6.840987 
H 	 6.670505 	 2.457025 	 -6.479644 
H 	 0.303547 	 3.388442 	 -5.639801 
H 	 -0.518108 	 2.167634 	 -5.214704 
H 	 1.809263 	 -2.923039 	 -7.086754 
H 	 1.139406 	 -4.040356 	 -6.225228 
H 	 -3.514820 	 -1.560581 	 7.084244 
H 	 -4.535477 	 -2.804588 	 7.208121 
H 	 -3.264170 	 3.308938 	 7.204014 
H 	 -2.597888 	 4.306571 	 -6.737670 
H 	 2.623267 	 -3.015580 	 -3.288944 
H 	 3.085940 	 -1.537229 	 -3.204286 
H 	 -3.834343 	 -3.858174 	 3.215627 
H 	 -4.973239 	 -3.053052 	 2.570488 
H 	 -2.505889 	 3.217948 	 1.410489 
H 	 -1.582863 	 2.737670 	 0.285276 
H 	 0.190475 	 -5.229134 	 -3.565640 
H 	 1.645167 	 -5.710894 	 -3.132901 
H 	 7.167575 	 -1.600174 	 -0.797497 
H 	 -6.356163 	 -1.686188 	 -0.173526 
H 	 3.536352 	 -0.614758 	 -6.815998 
H 	 4.045806 	 0.588819 	 -5.991339 
H 	 1.529009 	 -1.063692 	 -0.209371 
H 	 1.422564 	 -0.781042 	 1.223546 
H 	 -5.946432 	 1.577798 	 1.012827 
H 	 -6.826644 	 0.464810 	 0.349390 
H 	 -2.753541 	 5.398975 	 4.293062 
H 	 -1.461646 	 4.889656 	 3.708240 
H 	 2.957863 	 4.045663 	 -6.904747 
H 	 4.488800 	 4.132712 	 -7.244123 
H 	 6.951345 	 -1.626006 	 2.657083 
H 	 7.291983 	 -3.008751 	 3.282746 
H 	 0.567483 	 -0.912764 	 4.821273 
H 	 0.714893 	 -0.405371 	 6.252296 
H 	 -2.598208 	 3.176742 	 5.142667 
H 	 -1.391594 	 2.124933 	 5.034998 
H 	 4.940421 	 -2.478613 	 -1.557972 
H 	 4.878697 	 -1.313832 	 -0.616998 
H 	 -5.955348 	 1.846722 	 -3.516368 
H 	 -6.782359 	 0.806321 	 -2.730816 
H 	 -1.762505 	 6.449266 	 -4.690625 
H 	 -3.105582 	 6.580461 	 -5.455023 
H 	 3.250114 	 -4.141678 	 5.605063 
H 	 2.315087 	 -4.295229 	 4.405940 
H 	 -2.878434 	 0.844063 	 -4.886004 
H 	 -3.116714 	 2.001261 	 -5.737646 
H 	 -0.890498 	 -3.114573 	 6.387011 
H 	 -1.269650 	 -3.831004 	 -7.212832 
H 	 3.726658 	 -3.971923 	 -5.922945 
H 	 3.477168 	 -5.340509 	 -6.520548 
H 	 5.691497 	 -4.553456 	 1.761006 
H 	 5.563562 	 -3.226858 	 1.048190 
H 	 -5.645909 	 1.087427 	 6.059036 
H 	 -5.101292 	 -0.344802 	 5.985141 
H 	 7.308706 	 6.323248 	 4.203662 
H 	 5.890666 	 5.933018 	 4.745881 
H 	 -4.547136 	 -5.264675 	 6.964694 
H 	 -3.211257 	 -4.441166 	 7.290465 
H 	 2.321311 	 5.472588 	 -2.061238 
H 	 3.396852 	 4.481673 	 -1.513745 
H 	 -2.541808 	 1.084963 	 1.721389 
H 	 -1.876097 	 -0.117409 	 2.375775 
H 	 -5.825933 	 4.240270 	 3.759589 
H 	 -5.472140 	 3.170837 	 2.691639 
H 	 2.850786 	 1.954493 	 5.204100 
H 	 3.300455 	 0.994329 	 4.078107 
H 	 3.729231 	 3.987997 	 2.150621 
H 	 2.971806 	 3.010724 	 3.072839 
H 	 3.865394 	 -5.073616 	 -1.840264 
H 	 2.991036 	 -6.162597 	 -1.223139 
H 	 -6.393292 	 -7.474605 	 1.800849 
H 	 -7.113919 	 -6.304531 	 2.502839 
H 	 -2.295516 	 6.885722 	 6.152102 
H 	 -3.259269 	 5.770791 	 6.513659 
H 	 -6.312486 	 3.624871 	 -4.848384 
H 	 -4.720705 	 3.924909 	 -4.764989 
H 	 6.381340 	 2.782243 	 -1.271252 
H 	 4.987488 	 2.896512 	 -0.642629 
H 	 -2.451800 	 -4.926430 	 -5.584549 
H 	 -1.847855 	 -6.253655 	 -5.471266 
H 	 -7.035618 	 0.615667 	 2.475071 
H 	 -6.631866 	 0.086893 	 3.955026 
H 	 -1.693924 	 -1.025232 	 -1.255322 
H 	 -0.952758 	 0.277217 	 -1.122620 
H 	 -5.478425 	 -3.581809 	 0.786974 
H 	 -5.438092 	 -4.906900 	 0.045651 
H 	 -6.602521 	 -5.076914 	 -5.027909 
H 	 -7.214916 	 -5.779826 	 -6.338447 
H 	 -4.356276 	 3.956150 	 1.012025 
H 	 -3.820299 	 2.676125 	 0.162615 
H 	 -7.265207 	 6.303653 	 -3.963342 
H 	 -6.916299 	 5.314373 	 -2.886483 
H 	 1.121483 	 5.222744 	 3.951009 
H 	 0.231266 	 6.128792 	 4.775617 
H 	 5.778163 	 0.193701 	 7.061336 
H 	 6.289725 	 -0.362163 	 -6.450013 
H 	 -3.902979 	 -0.982927 	 1.600965 
H 	 -5.397197 	 -0.868757 	 2.149094 
H 	 0.129543 	 7.099087 	 -3.688626 
H 	 -0.461396 	 5.778742 	 -3.030777 
H 	 4.515470 	 2.639445 	 -3.447980 
H 	 4.503062 	 2.563473 	 -4.983984 
H 	 3.008582 	 -2.045870 	 2.461897 
H 	 4.463839 	 -2.172322 	 2.974150 
H 	 4.786023 	 0.907930 	 0.069792 
H 	 4.428361 	 0.050320 	 1.276223 
H 	 -4.602270 	 -4.881595 	 -3.329714 
H 	 -3.576127 	 -5.975803 	 -2.824060 
H 	 0.775184 	 -7.057124 	 6.585212 
H 	 0.479536 	 -6.490698 	 5.216578 
H 	 -4.996693 	 6.787832 	 4.285654 
H 	 -5.763104 	 5.995665 	 5.409984 
H 	 -0.498654 	 1.719073 	 2.657305 
H 	 0.002745 	 2.913819 	 3.470288 
H 	 5.829090 	 0.822872 	 -3.380388 
H 	 6.151200 	 0.010040 	 -2.104499 
H 	 -3.182080 	 -5.754665 	 4.062567 
H 	 -3.921746 	 -6.272941 	 2.800324 
H 	 6.451756 	 -1.783382 	 6.124314 
H 	 5.830024 	 -1.133425 	 4.787515 
H 	 6.098727 	 3.965540 	 1.253451 
H 	 6.099906 	 2.482558 	 1.344221 
H 	 1.494321 	 -0.134601 	 -5.409585 
H 	 0.443603 	 -1.146483 	 -5.206349 
H 	 -3.257081 	 -1.613505 	 -4.813702 
H 	 -1.925723 	 -1.630243 	 -5.669436 
H 	 -1.061229 	 3.746750 	 -3.507648 
H 	 -0.711425 	 4.039015 	 -1.976853 
H 	 4.908766 	 6.696757 	 -2.511179 
H 	 6.019814 	 5.717406 	 -2.156353 
H 	 -1.885197 	 -3.999724 	 -3.107129 
H 	 -1.119508 	 -2.789221 	 -3.505369 
H 	 -1.114054 	 -0.281685 	 6.263973 
H 	 -2.248256 	 0.728095 	 6.528246 
H 	 -2.973550 	 -1.531866 	 3.536558 
H 	 -2.093778 	 -2.058925 	 4.777225 
H 	 -5.919617 	 -6.954515 	 6.634629 
H 	 -6.262376 	 -5.726750 	 5.666608 
H 	 1.091877 	 -6.174972 	 0.355013 
H 	 0.115313 	 -6.304929 	 -0.807446 
H 	 -4.749925 	 5.224789 	 -2.838014 
H 	 -3.400818 	 5.331777 	 -2.126412 
H 	 -5.464388 	 -7.127970 	 -1.675563 
H 	 -4.953057 	 7.326303 	 -0.268424 
H 	 2.166231 	 5.063416 	 -4.124774 
H 	 3.388108 	 5.893183 	 -4.605522 
H 	 0.752667 	 2.188873 	 -2.602785 
H 	 1.214043 	 2.349505 	 -1.113069 
H 	 -5.815831 	 -7.108017 	 -5.196725 
H 	 -5.386963 	 6.768454 	 -6.199100 
H 	 -6.541666 	 -3.267968 	 -1.891972 
H 	 7.176688 	 -3.176803 	 -2.927066 
H 	 4.486417 	 7.163976 	 1.201914 
H 	 5.172781 	 6.702971 	 -0.117785 
H 	 5.426914 	 7.327753 	 -4.856027 
H 	 5.741130 	 6.401697 	 -6.069925 
H 	 6.481518 	 -6.921757 	 6.885569 
H 	 5.761376 	 -5.587023 	 -7.463800 
H 	 1.270278 	 -6.355563 	 -5.559300 
H 	 2.152977 	 -7.474995 	 -5.991458 
H 	 -3.433797 	 0.957597 	 -1.672494 
H 	 -2.580263 	 2.097203 	 -2.091476 
H 	 0.231291 	 5.500189 	 -6.707933 
H 	 -0.078323 	 4.908640 	 6.809233 
H 	 -5.642352 	 -0.810921 	 -4.187211 
H 	 -5.777226 	 -2.310086 	 -3.815956 
H 	 -6.304069 	 3.308654 	 -1.140657 
H 	 -7.083039 	 4.471053 	 -0.438130 
H 	 -4.264120 	 -0.949183 	 -0.687141 
H 	 -4.495080 	 -1.521323 	 -2.029492 
H 	 2.800870 	 -1.624471 	 6.240853 
H 	 4.278442 	 -2.170528 	 6.212405 
H 	 -0.212743 	 -1.837142 	 2.159064 
H 	 -0.658580 	 -0.984610 	 0.877851 
H 	 6.178246 	 -1.380964 	 -4.340402 
H 	 4.968781 	 -2.105492 	 -4.663389 
H 	 0.909785 	 1.764229 	 7.210409 
H 	 2.234143 	 0.955291 	 7.339717 
H 	 -6.852457 	 4.983765 	 1.989003 
H 	 6.819489 	 5.917128 	 1.627498 
H 	 5.616426 	 2.086287 	 5.418609 
H 	 6.675153 	 2.414355 	 4.453443 
H 	 2.446113 	 0.961468 	 0.353578 
H 	 2.684518 	 2.339343 	 0.947821 
H 	 -5.817071 	 5.252078 	 -7.449165 
O 	 0.562131 	 -6.476789 	 2.118702 
O 	 -2.222531 	 -6.425213 	 -1.740695 
O 	 -4.214816 	 5.827756 	 1.212461 
O 	 7.584594 	 -2.490675 	 -7.113159 
O 	 -5.816100 	 0.470162 	 -5.823790 
O 	 -2.325805 	 -3.949242 	 -0.002128 
O 	 1.702421 	 -3.761333 	 -1.208346 
O 	 2.468788 	 -3.981670 	 1.759259 
O 	 2.566397 	 0.236193 	 -2.769081 
O 	 5.718338 	 -6.018815 	 -3.849866 
O 	 -1.746192 	 7.042648 	 0.973470 
O 	 0.478684 	 5.181554 	 0.165867 
O 	 3.098347 	 -7.454565 	 2.900644 
O 	 6.123774 	 5.106998 	 6.601557 
O 	 -6.682448 	 -3.437950 	 4.903218 
O 	 3.032156 	 5.879510 	 5.530272 
O 	 6.369757 	 -5.311385 	 3.774525 
O 	 -0.714954 	 -3.730179 	 2.254943 
O 	 7.164959 	 3.263992 	 -6.242575 
O 	 -0.007161 	 2.906129 	 -4.840013 
O 	 1.435109 	 -3.097061 	 -6.211486 
O 	 -4.460987 	 -1.813185 	 7.108412 
O 	 -3.470602 	 4.044570 	 -7.086996 
O 	 3.407100 	 -2.453438 	 -3.248001 
O 	 -4.794526 	 -3.873471 	 3.111977 
O 	 -1.617904 	 2.882150 	 1.235810 
O 	 1.103195 	 -5.413606 	 -3.883041 
O 	 -6.804435 	 -1.323504 	 -0.956880 
O 	 3.233657 	 0.098924 	 -6.217987 
O 	 2.110411 	 -1.018399 	 0.563024 
O 	 -6.862719 	 1.352482 	 0.770425 
O 	 -2.370987 	 4.630940 	 3.878008 
O 	 3.715467 	 3.563586 	 -7.305323 
O 	 6.966958 	 -2.583493 	 2.460180 
O 	 0.515470 	 -1.236323 	 5.746368 
O 	 -2.013516 	 2.600529 	 5.642034 
O 	 5.443654 	 -2.065261 	 -0.862128 
O 	 -5.917506 	 1.278944 	 -2.708298 
O 	 -2.190784 	 6.226404 	 -5.526876 
O 	 2.970331 	 -4.785501 	 4.922613 
O 	 -2.675318 	 1.801312 	 -4.906948 
O 	 -1.485192 	 -3.751093 	 6.752222 
O 	 4.190360 	 -4.756636 	 -6.218830 
O 	 5.139054 	 -4.116098 	 1.085572 
O 	 -5.436725 	 0.381658 	 5.435022 
O 	 6.360983 	 6.521203 	 4.125345 
O 	 -4.188924 	 -4.447502 	 -7.491134 
O 	 2.471082 	 4.575337 	 -1.705636 
O 	 -2.777699 	 0.265038 	 2.215442 
O 	 -6.214177 	 3.543341 	 3.202882 
O 	 3.446400 	 1.870604 	 4.447364 
O 	 2.827054 	 3.837027 	 2.511955 
O 	 3.735728 	 -6.041270 	 -1.808834 
O 	 -6.310187 	 -6.520445 	 1.960987 
O 	 -3.153828 	 6.519264 	 5.872793 
O 	 -5.529061 	 3.654646 	 -4.266872 
O 	 5.456055 	 2.501142 	 -1.394150 
O 	 -1.555145 	 -5.313806 	 -5.524987 
O 	 7.566774 	 0.111805 	 3.262630 
O 	 -0.881816 	 -0.663684 	 -0.847909 
O 	 -5.723035 	 -3.973232 	 -0.066948 
O 	 -6.978169 	 -5.900397 	 -5.386465 
O 	 -4.267148 	 2.981315 	 0.985281 
O 	 7.562606 	 6.197825 	 -2.993719 
O 	 0.169943 	 5.465681 	 4.025283 
O 	 5.745317 	 0.320694 	 -6.872335 
O 	 -4.781330 	 -1.421729 	 1.631504 
O 	 -0.606781 	 6.745771 	 -3.114309 
O 	 4.329645 	 2.010166 	 -4.187573 
O 	 3.677188 	 -1.554558 	 3.010722 
O 	 5.196480 	 0.252959 	 0.710206 
O 	 -4.204394 	 -5.731691 	 -3.560510 
O 	 0.066360 	 -7.055355 	 5.927520 
O 	 -5.599583 	 6.046867 	 4.397555 
O 	 0.006065 	 1.937855 	 3.433013 
O 	 6.377158 	 0.086183 	 -3.058497 
O 	 -3.030548 	 -6.111356 	 3.163752 
O 	 5.680764 	 -1.350817 	 5.730248 
O 	 5.550115 	 3.250070 	 1.589378 
O 	 0.573985 	 -0.195261 	 -5.123391 
O 	 -2.286250 	 -1.652414 	 -4.785877 
O 	 -1.430684 	 4.116892 	 -2.659631 
O 	 5.110426 	 6.004695 	 -1.860336 
O 	 -0.952410 	 -3.694487 	 -3.154773 
O 	 -1.868443 	 -0.090212 	 6.869728 
O 	 -2.465295 	 -2.283348 	 3.915592 
O 	 -5.553972 	 -6.380347 	 5.897623 
O 	 1.064368 	 -6.168402 	 -0.636556 
O 	 -4.305836 	 5.661871 	 -2.084865 
O 	 -5.220125 	 -6.793606 	 -0.795022 
O 	 2.488590 	 5.593109 	 -4.876107 
O 	 0.447349 	 2.059223 	 -1.691994 
O 	 -5.015593 	 7.246268 	 -5.418488 
O 	 -6.853376 	 -3.573178 	 -2.778838 
O 	 5.293959 	 7.316374 	 0.653202 
O 	 5.301003 	 6.403016 	 -5.210426 
O 	 6.646216 	 -5.991912 	 7.124708 
O 	 1.414444 	 -6.902109 	 -6.330002 
O 	 -2.681434 	 1.478632 	 -1.357536 
O 	 0.292781 	 4.661946 	 -7.226803 
O 	 -5.161661 	 -1.638049 	 -4.136112 
O 	 -7.086984 	 3.910612 	 -1.229441 
O 	 -3.784722 	 -1.377795 	 -1.402175 
O 	 3.421996 	 -2.169162 	 6.755011 
O 	 -0.325041 	 -0.948093 	 1.793481 
O 	 5.910663 	 -2.181676 	 -4.876663 
O 	 1.502566 	 1.153512 	 6.712808 
O 	 -7.266063 	 5.495474 	 1.250423 
O 	 6.508332 	 2.439678 	 5.425458 
O 	 2.704160 	 1.858699 	 0.120574 
O 	 -6.348178 	 6.059297 	 7.184878 
K 	 6.697013 	 -5.824620 	 -0.864462 
