333
conformation = 49
H 	 1.444209 	 -6.872536 	 3.372984 
H 	 0.072421 	 -6.057291 	 3.304683 
H 	 -2.027815 	 -6.802241 	 -0.303595 
H 	 -1.088831 	 -6.304875 	 -1.414546 
H 	 -4.213488 	 5.686321 	 2.305176 
H 	 -4.568007 	 6.853307 	 1.277832 
H 	 -6.578008 	 -3.827889 	 -6.630693 
H 	 7.136580 	 -2.779274 	 -6.380853 
H 	 -5.460262 	 1.197760 	 -5.732880 
H 	 -5.035732 	 0.056010 	 -6.614412 
H 	 -2.280076 	 -4.342185 	 -0.023991 
H 	 -2.464036 	 -2.773118 	 -0.184734 
H 	 0.624010 	 -3.127572 	 -1.641384 
H 	 1.393643 	 -3.631014 	 -0.373266 
H 	 3.177396 	 -4.237442 	 1.609928 
H 	 1.885383 	 -3.537471 	 2.068354 
H 	 1.844772 	 0.615062 	 -3.379439 
H 	 1.348510 	 -0.307492 	 -2.174498 
H 	 5.323748 	 -5.385090 	 -4.027795 
H 	 6.692012 	 -6.161626 	 -3.953835 
H 	 -1.415237 	 6.289388 	 0.926641 
H 	 -2.121004 	 -7.444958 	 1.595681 
H 	 0.582162 	 5.251352 	 2.265605 
H 	 -0.380462 	 4.433986 	 1.356745 
H 	 3.569591 	 -6.422028 	 3.789572 
H 	 3.535222 	 7.125109 	 4.225180 
H 	 7.086233 	 5.449773 	 7.074684 
H 	 6.302762 	 4.263853 	 6.385371 
H 	 -7.228671 	 -3.365373 	 6.252594 
H 	 -6.931179 	 -3.336513 	 4.776657 
H 	 2.573263 	 6.589784 	 6.502167 
H 	 3.184941 	 5.168187 	 6.333704 
H 	 5.994953 	 -7.025925 	 4.096810 
H 	 6.001310 	 -5.785347 	 5.149314 
H 	 -1.130806 	 -3.398544 	 3.633736 
H 	 -1.449504 	 -4.002057 	 2.250555 
H 	 6.490430 	 3.765533 	 -5.849941 
H 	 6.544196 	 2.387795 	 -5.068244 
H 	 0.696718 	 3.519555 	 -4.748905 
H 	 -0.584858 	 2.969187 	 -4.204497 
H 	 0.783146 	 -2.973400 	 -5.915296 
H 	 0.991203 	 -4.043998 	 -4.827621 
H 	 -3.851336 	 -2.030782 	 6.490358 
H 	 -4.670629 	 -2.185295 	 -7.080809 
H 	 -3.836604 	 3.185993 	 -7.003147 
H 	 -3.344064 	 4.552718 	 -6.659622 
H 	 3.060579 	 -3.025730 	 -3.339420 
H 	 2.993348 	 -1.516317 	 -3.446072 
H 	 -4.057630 	 -3.026181 	 4.898181 
H 	 -4.206768 	 -3.239784 	 3.383283 
H 	 -1.880678 	 1.933818 	 2.198421 
H 	 -1.202850 	 1.874742 	 0.816284 
H 	 0.223701 	 -6.528334 	 -4.828885 
H 	 1.184684 	 -6.351818 	 -3.640797 
H 	 6.934763 	 -1.343393 	 -0.607136 
H 	 -6.531747 	 -1.540521 	 -0.643665 
H 	 4.570235 	 -0.041729 	 -6.593361 
H 	 3.806336 	 0.879222 	 -5.564848 
H 	 3.166994 	 -0.499731 	 0.093840 
H 	 2.027255 	 -1.127101 	 0.920987 
H 	 -6.163350 	 1.812771 	 0.503791 
H 	 -6.666345 	 0.430021 	 0.067677 
H 	 -3.594687 	 4.806498 	 4.280059 
H 	 -2.168558 	 4.325200 	 3.896588 
H 	 3.440081 	 4.089745 	 -6.335089 
H 	 4.583418 	 3.751863 	 7.491852 
H 	 7.353305 	 -1.788555 	 2.118060 
H 	 -6.865118 	 -2.757435 	 1.199983 
H 	 0.840015 	 -0.833091 	 4.549465 
H 	 1.276457 	 0.058055 	 5.638135 
H 	 -2.817180 	 3.070166 	 5.489141 
H 	 -1.490652 	 2.178410 	 5.516782 
H 	 4.683498 	 -2.577515 	 -1.572359 
H 	 4.985410 	 -2.809146 	 -0.091478 
H 	 -5.352931 	 2.455123 	 -3.382144 
H 	 -6.100906 	 1.097167 	 -3.207122 
H 	 -1.175949 	 5.213714 	 -4.812328 
H 	 -2.503418 	 6.097231 	 -4.742740 
H 	 2.843576 	 -4.306131 	 5.550807 
H 	 2.859766 	 -4.331348 	 4.007632 
H 	 -2.263079 	 1.029335 	 -4.671484 
H 	 -3.283496 	 2.086019 	 -4.676761 
H 	 -1.260871 	 -2.336517 	 -7.299638 
H 	 -1.241771 	 -3.887952 	 -6.985636 
H 	 3.843668 	 -3.959006 	 -6.997344 
H 	 3.308378 	 -5.423378 	 -6.833748 
H 	 5.201058 	 -4.846218 	 2.864882 
H 	 5.459912 	 -3.479421 	 2.177708 
H 	 -5.689810 	 1.611093 	 5.060759 
H 	 -5.352026 	 0.846206 	 6.371211 
H 	 6.159170 	 5.641430 	 3.298244 
H 	 5.862894 	 5.522766 	 4.888593 
H 	 -4.830207 	 -5.121716 	 7.059069 
H 	 -3.721001 	 -4.979227 	 -6.663703 
H 	 1.958406 	 4.275728 	 -1.096593 
H 	 3.052413 	 5.197477 	 -1.820834 
H 	 -3.029251 	 -0.556053 	 3.485456 
H 	 -1.843438 	 -0.161563 	 2.551526 
H 	 -6.009214 	 3.536540 	 3.689133 
H 	 -5.250764 	 2.615811 	 2.739048 
H 	 3.180149 	 1.773675 	 4.658247 
H 	 3.543779 	 0.244993 	 4.524857 
H 	 3.070476 	 5.045590 	 3.647355 
H 	 3.955995 	 4.111784 	 2.880287 
H 	 2.468681 	 -4.842071 	 -1.765975 
H 	 2.344917 	 -6.164424 	 -0.947827 
H 	 -5.739025 	 -6.251742 	 2.148495 
H 	 -6.927365 	 -5.939529 	 3.109567 
H 	 -1.819382 	 7.259444 	 6.299326 
H 	 -2.621688 	 6.518819 	 7.332119 
H 	 -6.407129 	 3.834719 	 -4.362752 
H 	 -5.192280 	 4.293331 	 -5.258318 
H 	 6.321820 	 3.000533 	 -1.440529 
H 	 4.896787 	 2.556499 	 -0.800151 
H 	 -2.630668 	 -5.448901 	 -4.814659 
H 	 -2.508556 	 -6.686784 	 -5.638620 
H 	 -6.861045 	 0.652867 	 2.779916 
H 	 -7.024826 	 -0.112285 	 4.122355 
H 	 -0.777503 	 -1.228150 	 -1.606788 
H 	 -0.590189 	 0.262897 	 -1.260716 
H 	 -4.846473 	 -3.288719 	 -0.171540 
H 	 -5.223410 	 -4.768742 	 -0.444890 
H 	 -6.492363 	 -5.100638 	 -5.232530 
H 	 -6.978496 	 -6.235950 	 -6.178654 
H 	 -4.774240 	 4.663397 	 0.568000 
H 	 -4.098274 	 3.353349 	 0.175555 
H 	 -6.681298 	 7.070065 	 -3.535320 
H 	 -6.959118 	 5.714080 	 -2.894491 
H 	 1.251135 	 4.648436 	 4.904573 
H 	 -0.143500 	 4.721591 	 5.301399 
H 	 7.140047 	 0.461130 	 7.196889 
H 	 7.250509 	 -0.264552 	 -6.287885 
H 	 -3.923929 	 -1.310367 	 1.489370 
H 	 -5.190989 	 -0.514229 	 0.977633 
H 	 0.711504 	 5.924357 	 -2.497204 
H 	 -0.794707 	 6.063476 	 -2.234262 
H 	 4.180980 	 2.298483 	 -3.012375 
H 	 3.556802 	 3.018103 	 -4.173416 
H 	 3.721817 	 -1.991308 	 2.917063 
H 	 5.071651 	 -1.243525 	 3.041203 
H 	 4.758271 	 0.230838 	 1.422200 
H 	 6.140450 	 0.004061 	 2.163329 
H 	 -5.238040 	 -4.761177 	 -3.436730 
H 	 -4.071893 	 -5.325725 	 -2.511362 
H 	 0.901912 	 -6.444125 	 6.224318 
H 	 0.290918 	 -7.052571 	 4.887337 
H 	 -5.890071 	 6.105667 	 4.349692 
H 	 -5.771121 	 5.911747 	 5.873843 
H 	 -0.025598 	 1.215351 	 3.416207 
H 	 0.370983 	 2.398590 	 4.327653 
H 	 5.665260 	 0.735123 	 -3.578448 
H 	 6.638861 	 -0.161068 	 -2.792188 
H 	 -3.468751 	 -7.370314 	 4.335564 
H 	 -3.275374 	 -5.869641 	 4.024338 
H 	 6.007917 	 -1.814626 	 5.716231 
H 	 5.471011 	 -0.343401 	 5.541078 
H 	 6.375329 	 3.688281 	 1.913187 
H 	 5.935683 	 2.274533 	 1.729735 
H 	 1.452328 	 0.204606 	 -5.974783 
H 	 0.117464 	 -0.384137 	 -5.492176 
H 	 -2.794620 	 -1.133805 	 -4.522675 
H 	 -2.291862 	 -0.590499 	 -5.870499 
H 	 -2.332410 	 3.839298 	 -2.700515 
H 	 -1.484555 	 3.849954 	 -1.425835 
H 	 4.393290 	 7.087180 	 -2.038051 
H 	 5.287491 	 5.823901 	 -1.918404 
H 	 -1.875989 	 -3.746885 	 -2.659867 
H 	 -0.872656 	 -3.145294 	 -3.652762 
H 	 -0.742181 	 0.602991 	 7.544397 
H 	 -2.217003 	 0.357267 	 7.034031 
H 	 -1.411972 	 -1.385000 	 5.331297 
H 	 -2.064839 	 -2.747868 	 5.669592 
H 	 -5.827985 	 -6.960931 	 5.990400 
H 	 -6.482018 	 -5.777472 	 5.419734 
H 	 0.774305 	 -7.289864 	 0.862144 
H 	 0.813183 	 6.850200 	 -0.508139 
H 	 -4.533556 	 6.247961 	 -2.798556 
H 	 -3.534589 	 5.682339 	 -1.774206 
H 	 -4.904713 	 7.333897 	 -0.716476 
H 	 -6.145904 	 -7.162093 	 0.253251 
H 	 2.318081 	 4.622798 	 -3.938331 
H 	 3.355000 	 5.481616 	 -4.789885 
H 	 -0.002628 	 2.798918 	 -1.951420 
H 	 0.652910 	 2.578440 	 -0.554177 
H 	 -4.420379 	 -6.640040 	 -4.698876 
H 	 -5.022020 	 7.379181 	 -5.741408 
H 	 -6.685232 	 -3.313508 	 -2.304760 
H 	 7.334235 	 -3.315268 	 -3.607977 
H 	 4.723749 	 -7.434428 	 1.950318 
H 	 4.751422 	 6.891099 	 0.484259 
H 	 5.409920 	 -7.473262 	 -5.388567 
H 	 5.445242 	 6.210068 	 -6.461422 
H 	 6.791875 	 -6.818060 	 7.368124 
H 	 5.515785 	 -5.778116 	 7.489563 
H 	 1.835921 	 -7.006452 	 -6.141661 
H 	 3.304614 	 -7.330031 	 -6.386751 
H 	 -2.862320 	 0.926886 	 -0.594041 
H 	 -3.631790 	 1.383239 	 -1.826408 
H 	 1.318856 	 5.082484 	 -6.913745 
H 	 -0.247739 	 4.891082 	 -6.916193 
H 	 -5.250704 	 -0.797029 	 -4.505421 
H 	 -5.592758 	 -2.275220 	 -4.206788 
H 	 -6.352515 	 3.236202 	 -1.717266 
H 	 -6.829913 	 4.220052 	 -0.534549 
H 	 -4.065040 	 -1.196036 	 -0.635203 
H 	 -3.647631 	 -1.633164 	 -2.124741 
H 	 2.125669 	 -2.407083 	 6.339918 
H 	 3.643972 	 -2.085781 	 6.462605 
H 	 -0.472367 	 -1.938996 	 2.030416 
H 	 -0.213326 	 -1.094082 	 0.687135 
H 	 6.512257 	 -1.356359 	 -4.392327 
H 	 5.372120 	 -2.182312 	 -4.607213 
H 	 1.263375 	 2.853533 	 6.687250 
H 	 2.591456 	 2.213642 	 7.172666 
H 	 -6.662972 	 5.591889 	 1.977836 
H 	 6.796980 	 6.104428 	 1.485743 
H 	 5.318968 	 2.548674 	 4.756525 
H 	 6.752819 	 2.436131 	 4.397286 
H 	 1.940971 	 1.345874 	 1.252279 
H 	 2.008533 	 2.845074 	 1.644201 
H 	 -6.289287 	 5.906575 	 -6.947786 
O 	 0.480515 	 -6.926759 	 3.262803 
O 	 -1.893874 	 -6.056312 	 -0.938656 
O 	 -4.924404 	 6.204271 	 1.915809 
O 	 -6.845833 	 -2.877795 	 -6.719312 
O 	 -4.667465 	 0.716080 	 -6.017131 
O 	 -2.444512 	 -3.499924 	 0.466085 
O 	 1.511538 	 -3.182440 	 -1.225422 
O 	 2.218907 	 -4.209488 	 1.482238 
O 	 2.127647 	 -0.020398 	 -2.718267 
O 	 5.802309 	 -6.142749 	 -3.578314 
O 	 -2.235093 	 6.834742 	 0.849770 
O 	 0.019661 	 5.306761 	 1.479797 
O 	 3.195942 	 -7.261348 	 3.475859 
O 	 6.336587 	 4.784629 	 7.207539 
O 	 7.307605 	 -3.686066 	 5.400204 
O 	 2.961512 	 5.968463 	 5.824452 
O 	 6.117756 	 -6.030373 	 4.205630 
O 	 -0.690590 	 -3.793125 	 2.849693 
O 	 6.595108 	 3.349637 	 -4.958938 
O 	 0.243384 	 3.421197 	 -3.878844 
O 	 0.641324 	 -3.144531 	 -4.961643 
O 	 -4.486065 	 -1.586926 	 7.077682 
O 	 -4.169694 	 4.095375 	 -6.902130 
O 	 3.658243 	 -2.279754 	 -3.500384 
O 	 -4.508272 	 -3.584687 	 4.266424 
O 	 -1.227618 	 2.362398 	 1.635619 
O 	 1.080803 	 -6.148097 	 -4.620274 
O 	 -7.185547 	 -1.010214 	 -1.141711 
O 	 3.733933 	 0.100921 	 -6.145009 
O 	 2.874255 	 -0.634545 	 1.026192 
O 	 -6.173191 	 0.874702 	 0.802300 
O 	 -3.112229 	 4.099867 	 3.820551 
O 	 3.602448 	 3.840950 	 -7.254735 
O 	 7.135603 	 -2.382524 	 1.364453 
O 	 1.497532 	 -0.813812 	 5.254378 
O 	 -2.321483 	 2.434084 	 6.033620 
O 	 5.249602 	 -3.107385 	 -0.992046 
O 	 -5.201790 	 1.500365 	 -3.158900 
O 	 -1.763711 	 5.821978 	 -5.328248 
O 	 2.361038 	 -4.651029 	 4.766057 
O 	 -2.315204 	 1.981168 	 -4.831222 
O 	 -1.344218 	 -3.221780 	 7.225217 
O 	 3.984042 	 -4.812451 	 -6.521118 
O 	 5.089690 	 -4.372192 	 2.004670 
O 	 -5.645350 	 0.688155 	 5.454141 
O 	 5.770184 	 6.055758 	 4.086610 
O 	 -4.516276 	 -4.539619 	 -7.084259 
O 	 2.218084 	 4.638274 	 -1.952306 
O 	 -2.785469 	 0.006353 	 2.710172 
O 	 -5.952216 	 2.613621 	 3.437301 
O 	 3.854206 	 1.172681 	 4.373446 
O 	 3.007558 	 4.392928 	 2.930823 
O 	 2.854264 	 -5.728483 	 -1.682702 
O 	 -6.697095 	 -6.357657 	 2.238072 
O 	 -2.700940 	 6.809521 	 6.412010 
O 	 -5.453099 	 4.071290 	 -4.339429 
O 	 5.351040 	 2.832178 	 -1.611623 
O 	 -2.205825 	 -5.745719 	 -5.656185 
O 	 7.512453 	 -0.070298 	 3.199731 
O 	 -0.139299 	 -0.603331 	 -1.202541 
O 	 -5.617615 	 -3.889568 	 -0.247361 
O 	 -6.747995 	 -6.036925 	 -5.261381 
O 	 -4.756946 	 3.700782 	 0.818767 
O 	 7.486354 	 6.488022 	 -3.257606 
O 	 0.369160 	 4.434765 	 4.501199 
O 	 7.350002 	 0.586200 	 -6.761567 
O 	 -4.711950 	 -1.375683 	 0.933488 
O 	 0.005589 	 6.579266 	 -2.476922 
O 	 3.622397 	 2.094882 	 -3.816670 
O 	 4.312899 	 -1.535011 	 3.561919 
O 	 5.693825 	 -0.052717 	 1.273040 
O 	 -4.270586 	 -4.994056 	 -3.363656 
O 	 0.163610 	 -7.033357 	 5.867091 
O 	 -5.555065 	 5.466720 	 5.005939 
O 	 0.173910 	 1.441925 	 4.331885 
O 	 6.565591 	 0.370868 	 -3.605081 
O 	 -3.091562 	 -6.773882 	 3.660708 
O 	 5.847884 	 -0.980546 	 6.157018 
O 	 5.559483 	 3.146399 	 1.965303 
O 	 0.597617 	 0.459241 	 -5.515569 
O 	 -1.988478 	 -1.054070 	 -5.070892 
O 	 -2.027566 	 4.449931 	 -1.987616 
O 	 4.574443 	 6.330678 	 -1.438390 
O 	 -1.150623 	 -3.099291 	 -2.686825 
O 	 -1.357382 	 -0.078705 	 7.167016 
O 	 -1.987539 	 -2.075492 	 4.968467 
O 	 -5.613738 	 -6.211180 	 5.437226 
O 	 1.184500 	 -7.300768 	 -0.034074 
O 	 -4.412018 	 6.098623 	 -1.841390 
O 	 -5.428882 	 -6.828289 	 -0.322341 
O 	 2.641222 	 4.809603 	 -4.837011 
O 	 -0.153735 	 2.356787 	 -1.072091 
O 	 -4.253803 	 7.335354 	 -5.130250 
O 	 -6.831545 	 -3.805425 	 -3.120736 
O 	 5.312809 	 7.245048 	 1.204207 
O 	 4.895759 	 6.888167 	 -6.006021 
O 	 6.389792 	 -5.975962 	 7.028861 
O 	 2.438046 	 -7.191651 	 -6.898064 
O 	 -3.196738 	 1.736314 	 -1.017452 
O 	 0.590282 	 4.471076 	 -7.144823 
O 	 -4.856264 	 -1.658450 	 -4.265019 
O 	 -7.072983 	 3.793670 	 -1.374931 
O 	 -3.292834 	 -1.328555 	 -1.248557 
O 	 2.987747 	 -2.789766 	 6.586630 
O 	 -0.057914 	 -1.128554 	 1.645716 
O 	 6.335416 	 -2.285376 	 -4.686280 
O 	 1.827670 	 2.077757 	 6.551070 
O 	 7.393999 	 5.342837 	 1.559724 
O 	 6.209183 	 2.901511 	 5.030374 
O 	 1.854340 	 2.256135 	 0.906338 
O 	 -6.838970 	 6.451585 	 7.387132 
K 	 6.367295 	 -5.333274 	 -0.664464 
