333
conformation = 3
H 	 1.770865 	 -6.778838 	 2.881670 
H 	 1.085510 	 -5.468555 	 2.616770 
H 	 -2.428843 	 -6.975209 	 -0.701911 
H 	 -1.874567 	 -7.455335 	 -2.035518 
H 	 -4.445161 	 5.687378 	 1.799407 
H 	 -3.299519 	 5.897974 	 0.855550 
H 	 -6.706719 	 -2.337340 	 -7.239124 
H 	 7.316696 	 -3.054297 	 -6.182591 
H 	 -7.171383 	 0.594711 	 -5.786409 
H 	 -5.733017 	 0.145384 	 -6.298758 
H 	 -2.152187 	 -3.948052 	 -0.706815 
H 	 -3.367683 	 -4.077091 	 0.209392 
H 	 0.234423 	 -2.752516 	 -0.979790 
H 	 0.742815 	 -4.216627 	 -0.790368 
H 	 3.533223 	 -4.179641 	 1.615438 
H 	 2.096716 	 -3.611913 	 1.390933 
H 	 3.426663 	 0.483435 	 -3.193503 
H 	 2.066907 	 -0.210457 	 -3.030055 
H 	 5.198701 	 -5.874277 	 -4.324037 
H 	 6.757495 	 -5.828461 	 -4.106634 
H 	 -0.923590 	 6.338349 	 1.197111 
H 	 -1.624630 	 -7.431837 	 2.046075 
H 	 0.697615 	 6.058897 	 -0.632765 
H 	 1.240626 	 4.934964 	 0.144342 
H 	 3.756662 	 6.464796 	 3.625231 
H 	 3.023818 	 6.289787 	 2.304392 
H 	 7.089554 	 5.610458 	 6.864083 
H 	 6.004826 	 4.504902 	 6.530503 
H 	 -5.980438 	 -3.680489 	 5.953035 
H 	 -5.666802 	 -3.573860 	 4.402790 
H 	 3.434965 	 5.868792 	 6.042677 
H 	 3.844343 	 4.443538 	 5.596936 
H 	 6.608366 	 -6.216536 	 3.805164 
H 	 7.308340 	 -4.908209 	 4.138439 
H 	 -0.924853 	 -4.450294 	 2.634433 
H 	 -1.184294 	 -3.945403 	 1.215151 
H 	 7.383786 	 3.528777 	 -6.378838 
H 	 6.775497 	 2.310735 	 -6.798091 
H 	 0.224164 	 2.905084 	 -5.880057 
H 	 0.741275 	 1.561049 	 -5.208219 
H 	 2.172535 	 -2.967010 	 -6.836492 
H 	 1.277465 	 -4.011811 	 -6.134138 
H 	 -3.998556 	 -1.287109 	 -7.355464 
H 	 -4.558210 	 -2.385829 	 -6.529563 
H 	 -3.149868 	 3.074586 	 -7.250979 
H 	 -2.931534 	 4.500886 	 -6.679393 
H 	 2.793786 	 -3.598349 	 -3.376685 
H 	 3.238572 	 -2.102567 	 -3.211593 
H 	 -4.043981 	 -4.180722 	 2.823047 
H 	 -4.874530 	 -2.993950 	 2.378081 
H 	 -1.157107 	 3.814043 	 1.298035 
H 	 -1.282326 	 2.562031 	 0.486774 
H 	 0.992876 	 -5.379453 	 -2.908275 
H 	 2.441283 	 -5.903943 	 -2.762013 
H 	 7.008324 	 -1.493507 	 0.185356 
H 	 -6.400349 	 -1.635838 	 0.681502 
H 	 3.320141 	 -0.884571 	 -6.529888 
H 	 3.201239 	 0.398044 	 -5.787222 
H 	 1.975086 	 -1.802484 	 -0.116409 
H 	 1.617096 	 -1.187979 	 1.298146 
H 	 -6.236172 	 1.824227 	 0.862554 
H 	 -7.142938 	 0.579565 	 0.464434 
H 	 -2.674614 	 5.121591 	 3.824891 
H 	 -1.364495 	 4.424177 	 3.364901 
H 	 2.964926 	 4.271454 	 -6.273055 
H 	 4.039433 	 3.278229 	 -6.536002 
H 	 6.267692 	 -1.979747 	 2.968504 
H 	 7.034531 	 -3.218482 	 2.703704 
H 	 0.540525 	 -2.102738 	 4.427005 
H 	 0.665767 	 -0.886297 	 5.385157 
H 	 -2.105953 	 2.767293 	 4.965957 
H 	 -1.015304 	 1.854306 	 4.912365 
H 	 4.551204 	 -2.737226 	 -1.620794 
H 	 4.302689 	 -1.573951 	 -0.653720 
H 	 -5.521988 	 1.143269 	 -2.723764 
H 	 -6.378726 	 0.297318 	 -1.743868 
H 	 -1.612344 	 6.459634 	 -5.072813 
H 	 -3.161043 	 6.351467 	 -5.269027 
H 	 3.084397 	 -4.216905 	 5.933124 
H 	 2.736877 	 -4.815339 	 4.589412 
H 	 -2.421896 	 0.349422 	 -5.017413 
H 	 -2.954266 	 1.816995 	 -4.691450 
H 	 -1.449409 	 -4.157453 	 5.757985 
H 	 -0.990568 	 -4.888348 	 6.994227 
H 	 3.714555 	 -4.753789 	 -5.919842 
H 	 3.481414 	 -6.218406 	 -6.025470 
H 	 5.838917 	 -4.953712 	 1.320417 
H 	 5.806177 	 -3.641410 	 0.446578 
H 	 -4.392226 	 0.901179 	 5.220795 
H 	 -5.209638 	 -0.237590 	 5.906426 
H 	 7.313895 	 6.375203 	 4.304246 
H 	 5.854529 	 6.437516 	 4.804044 
H 	 -4.183771 	 -5.638700 	 7.462660 
H 	 -3.262621 	 -4.434036 	 -7.340003 
H 	 1.775395 	 4.692483 	 -2.332037 
H 	 3.242217 	 4.959217 	 -2.145165 
H 	 -3.097957 	 1.217206 	 2.778909 
H 	 -1.941857 	 0.098588 	 2.845138 
H 	 -5.960514 	 4.164054 	 3.837671 
H 	 -5.370462 	 3.057277 	 2.975181 
H 	 2.842747 	 1.669529 	 5.572260 
H 	 3.495609 	 0.798951 	 4.511593 
H 	 3.815374 	 3.820026 	 2.248347 
H 	 2.814518 	 3.414689 	 3.360278 
H 	 3.871018 	 -5.511064 	 -0.721109 
H 	 2.744037 	 -6.522269 	 -0.883292 
H 	 -6.240641 	 -7.514558 	 1.856266 
H 	 -6.517432 	 -6.158138 	 2.592423 
H 	 -2.488299 	 6.955415 	 6.979683 
H 	 -3.868590 	 6.511192 	 6.465994 
H 	 -5.698487 	 2.517736 	 -4.365836 
H 	 -5.110170 	 3.791518 	 -4.776580 
H 	 5.728438 	 2.817211 	 -1.013399 
H 	 4.254266 	 2.332741 	 -0.870188 
H 	 -2.412526 	 -5.541158 	 -5.546279 
H 	 -1.035205 	 -6.331048 	 -5.694347 
H 	 7.434688 	 0.500397 	 2.520700 
H 	 -6.776480 	 0.793625 	 3.821503 
H 	 -1.566834 	 -1.023015 	 -0.719760 
H 	 -0.302573 	 -0.138816 	 -1.019164 
H 	 -5.436624 	 -4.651036 	 0.980351 
H 	 -4.862997 	 -5.642233 	 -0.058836 
H 	 -5.578047 	 -4.914624 	 -5.338805 
H 	 -6.889847 	 -5.306443 	 -5.918005 
H 	 -4.519210 	 3.580543 	 0.706673 
H 	 -4.126508 	 2.310218 	 -0.126179 
H 	 -6.802184 	 6.187743 	 -3.623078 
H 	 -7.150207 	 5.177717 	 -2.441026 
H 	 1.503777 	 5.271935 	 3.584764 
H 	 0.535560 	 6.474310 	 4.085817 
H 	 5.987232 	 -0.524039 	 -7.000773 
H 	 5.581564 	 -0.818312 	 -5.644092 
H 	 -4.439769 	 -0.632540 	 2.157580 
H 	 -5.870106 	 -0.690153 	 2.651692 
H 	 0.607321 	 6.848201 	 -3.510006 
H 	 -0.193894 	 5.515136 	 -3.176724 
H 	 4.994983 	 2.564406 	 -3.189665 
H 	 5.806283 	 2.588147 	 -4.622495 
H 	 3.346762 	 -1.904604 	 2.830211 
H 	 4.434560 	 -1.606703 	 3.953416 
H 	 4.780552 	 0.526404 	 1.170677 
H 	 4.940868 	 -0.824460 	 1.906767 
H 	 -5.302127 	 -5.574243 	 -3.387238 
H 	 -3.892486 	 -6.106504 	 -2.939430 
H 	 0.650544 	 -6.546469 	 6.903599 
H 	 0.689585 	 -6.342527 	 5.322985 
H 	 -5.509407 	 6.695476 	 4.484540 
H 	 -5.807037 	 5.649133 	 5.659694 
H 	 0.527104 	 0.979465 	 3.427429 
H 	 0.380341 	 2.378533 	 2.899921 
H 	 5.993108 	 0.636290 	 -3.024418 
H 	 6.006521 	 -0.501555 	 -1.948481 
H 	 -2.923892 	 -6.231109 	 4.166609 
H 	 -3.736858 	 -6.305134 	 2.846562 
H 	 6.740578 	 -2.018973 	 5.835672 
H 	 6.715729 	 -0.736792 	 5.021952 
H 	 6.054693 	 4.106047 	 1.302261 
H 	 6.050087 	 2.549592 	 1.394948 
H 	 0.497924 	 -1.047571 	 -4.549732 
H 	 -0.648120 	 -0.570341 	 -3.539110 
H 	 -3.180952 	 -2.268881 	 -4.410129 
H 	 -1.865107 	 -2.487262 	 -5.164030 
H 	 -0.854400 	 3.211679 	 -3.601573 
H 	 -0.792641 	 3.130051 	 -2.099058 
H 	 4.684223 	 6.979093 	 -2.449137 
H 	 5.797536 	 5.927396 	 -2.431418 
H 	 -1.256791 	 -5.039078 	 -3.094735 
H 	 -0.824755 	 -3.561885 	 -3.349733 
H 	 -1.755742 	 -0.767197 	 7.401884 
H 	 -2.286168 	 0.658413 	 7.075486 
H 	 -3.171999 	 -1.865619 	 5.138728 
H 	 -2.746508 	 -1.921270 	 3.743453 
H 	 -5.825029 	 -7.213384 	 6.671380 
H 	 -6.577607 	 -5.918189 	 6.501469 
H 	 0.526256 	 -6.753281 	 0.361950 
H 	 -0.038186 	 -6.744463 	 -1.050422 
H 	 -4.164874 	 4.490451 	 -2.589546 
H 	 -2.717220 	 4.829657 	 -2.524180 
H 	 -5.621391 	 6.770741 	 -1.807865 
H 	 -5.194310 	 6.803303 	 -0.345941 
H 	 1.634489 	 4.244666 	 -4.503283 
H 	 3.030538 	 4.896833 	 -4.312915 
H 	 0.714022 	 1.650340 	 -2.566771 
H 	 1.133969 	 1.911431 	 -1.084998 
H 	 -5.157002 	 7.141794 	 -5.703504 
H 	 -5.452763 	 5.709755 	 -6.270791 
H 	 -6.881081 	 -3.347393 	 -1.732156 
H 	 7.098958 	 -3.419214 	 -3.005164 
H 	 4.704486 	 6.818948 	 1.743472 
H 	 4.960363 	 6.507252 	 0.175081 
H 	 5.911737 	 6.642745 	 -4.789298 
H 	 5.620886 	 5.575585 	 -5.896651 
H 	 6.245445 	 -7.142805 	 6.986243 
H 	 5.453304 	 -6.081325 	 -7.202970 
H 	 1.185541 	 -6.511966 	 -5.101492 
H 	 1.388431 	 7.054924 	 -5.952117 
H 	 -3.002517 	 0.825710 	 -1.704970 
H 	 -2.922121 	 2.260928 	 -2.271936 
H 	 0.185896 	 5.068536 	 6.929022 
H 	 1.639943 	 4.528195 	 6.713920 
H 	 -5.728152 	 -1.572042 	 -4.252674 
H 	 -5.553714 	 -2.948311 	 -3.580545 
H 	 -6.721855 	 2.857177 	 -1.556030 
H 	 -6.950655 	 3.945866 	 -0.435770 
H 	 -4.044959 	 -0.709147 	 -0.624645 
H 	 -3.923077 	 -1.871705 	 -1.633174 
H 	 2.755484 	 -1.756535 	 5.754157 
H 	 4.258367 	 -1.777707 	 6.211370 
H 	 -0.478160 	 -2.110240 	 2.266735 
H 	 -0.516097 	 -0.990523 	 1.279926 
H 	 6.247100 	 -1.655789 	 -3.964740 
H 	 5.134605 	 -2.807960 	 -4.178978 
H 	 0.628131 	 1.872048 	 6.942886 
H 	 1.342325 	 0.549445 	 7.399317 
H 	 -7.112224 	 4.960056 	 2.400039 
H 	 6.843308 	 5.913967 	 1.572793 
H 	 5.596449 	 1.763240 	 5.759254 
H 	 6.938684 	 2.345054 	 5.063875 
H 	 2.576137 	 0.602741 	 0.128083 
H 	 2.429184 	 1.883811 	 0.987909 
H 	 -5.179050 	 4.547764 	 7.072949 
O 	 0.931692 	 -6.428588 	 2.478171 
O 	 -1.944758 	 -6.642205 	 -1.490447 
O 	 -4.241455 	 5.620694 	 0.832927 
O 	 7.274249 	 -2.587516 	 -7.053705 
O 	 -6.247799 	 0.425753 	 -5.522534 
O 	 -2.397610 	 -4.271665 	 0.168115 
O 	 1.050021 	 -3.283162 	 -0.845326 
O 	 2.709733 	 -3.895451 	 2.106229 
O 	 2.993420 	 -0.223848 	 -2.688565 
O 	 5.929933 	 -6.171151 	 -3.688931 
O 	 -1.637501 	 7.003192 	 1.191573 
O 	 0.421167 	 5.438772 	 0.070418 
O 	 3.444830 	 6.952292 	 2.865252 
O 	 6.093242 	 5.407390 	 6.955683 
O 	 -6.396677 	 -3.522342 	 5.083921 
O 	 3.321290 	 5.230965 	 5.335555 
O 	 6.791715 	 -5.296407 	 3.392254 
O 	 -0.485667 	 -3.939713 	 1.946287 
O 	 6.916867 	 2.784744 	 -5.974171 
O 	 0.550321 	 2.511162 	 -5.042511 
O 	 2.100289 	 -3.482291 	 -6.015283 
O 	 -4.741337 	 -1.920878 	 7.529845 
O 	 -3.434612 	 3.664058 	 -6.523556 
O 	 3.536978 	 -3.018307 	 -3.149368 
O 	 -4.962215 	 -3.941005 	 2.633302 
O 	 -0.644652 	 3.044985 	 1.037635 
O 	 1.750113 	 -5.630670 	 -3.420488 
O 	 -6.966441 	 -1.506901 	 -0.117441 
O 	 2.662164 	 -0.356331 	 -6.083069 
O 	 2.237900 	 -1.126740 	 0.531758 
O 	 -7.138582 	 1.408437 	 0.998227 
O 	 -2.363546 	 4.319519 	 3.392837 
O 	 3.387824 	 3.791719 	 -7.023651 
O 	 6.272835 	 -2.731394 	 2.347533 
O 	 0.833042 	 -1.859263 	 5.330988 
O 	 -1.631946 	 2.172334 	 5.601134 
O 	 4.991874 	 -2.210181 	 -0.911338 
O 	 -5.742242 	 1.047516 	 -1.772485 
O 	 -2.342900 	 6.625895 	 -5.741322 
O 	 2.840833 	 -5.086522 	 5.518682 
O 	 -2.634794 	 0.993412 	 -4.297984 
O 	 -1.275399 	 -4.009143 	 6.697355 
O 	 4.180414 	 -5.592856 	 -5.784023 
O 	 5.612324 	 -4.590283 	 0.449792 
O 	 -5.147087 	 0.300984 	 5.121660 
O 	 6.388843 	 6.705247 	 4.017817 
O 	 -3.904859 	 -4.972031 	 -6.800149 
O 	 2.437688 	 4.720602 	 -1.614745 
O 	 -2.884400 	 0.286689 	 3.044025 
O 	 -6.116564 	 3.205607 	 3.583370 
O 	 3.709056 	 1.594561 	 5.058205 
O 	 2.865599 	 3.855564 	 2.476351 
O 	 3.502596 	 -6.153961 	 -1.371782 
O 	 -5.825313 	 -6.697003 	 2.130893 
O 	 -2.986925 	 6.813924 	 6.167580 
O 	 -5.168876 	 3.226878 	 -3.966692 
O 	 5.037811 	 2.319279 	 -1.460750 
O 	 -1.438506 	 -5.439515 	 -5.632027 
O 	 -7.238981 	 0.051990 	 3.369543 
O 	 -0.596451 	 -0.978015 	 -0.600627 
O 	 -5.383973 	 -4.827036 	 0.022629 
O 	 -6.532507 	 -4.701289 	 -5.256898 
O 	 -4.370063 	 2.598083 	 0.800239 
O 	 -7.102499 	 6.139085 	 -2.689178 
O 	 0.581143 	 5.578143 	 3.659022 
O 	 5.747322 	 -0.019915 	 -6.194276 
O 	 -5.210820 	 -1.235247 	 2.112925 
O 	 -0.295382 	 6.470482 	 -3.352041 
O 	 5.110029 	 2.166925 	 -4.087546 
O 	 3.655669 	 -1.249000 	 3.457556 
O 	 5.325836 	 -0.290566 	 1.222635 
O 	 -4.328821 	 -5.451068 	 -3.544499 
O 	 0.226210 	 -6.837076 	 6.074349 
O 	 -6.011828 	 5.883369 	 4.604436 
O 	 0.544810 	 1.887904 	 3.741215 
O 	 6.528224 	 -0.109092 	 -2.685592 
O 	 -2.806578 	 -6.339132 	 3.189839 
O 	 6.113548 	 -1.444687 	 5.347190 
O 	 5.451189 	 3.325547 	 1.313191 
O 	 0.206402 	 -0.320352 	 -3.923057 
O 	 -2.396641 	 -1.774061 	 -4.782416 
O 	 -0.912622 	 3.791267 	 -2.816693 
O 	 5.016752 	 6.223749 	 -1.924656 
O 	 -1.046532 	 -4.211019 	 -2.646993 
O 	 -2.480102 	 -0.137118 	 -7.273740 
O 	 -2.718827 	 -2.503379 	 4.545912 
O 	 -5.730286 	 -6.320166 	 6.299513 
O 	 0.804521 	 -6.573259 	 -0.552609 
O 	 -3.565683 	 5.148389 	 -2.210761 
O 	 -5.427854 	 -7.496287 	 -1.082262 
O 	 2.114092 	 5.103731 	 -4.536339 
O 	 0.379637 	 1.627608 	 -1.652122 
O 	 -5.292275 	 6.202387 	 -5.434406 
O 	 -7.075361 	 -3.887762 	 -2.534721 
O 	 5.381427 	 6.703535 	 1.034188 
O 	 5.794540 	 5.690093 	 -4.949396 
O 	 6.308214 	 -6.260392 	 7.284821 
O 	 0.935660 	 -6.965175 	 -5.915819 
O 	 -2.988832 	 1.760898 	 -1.457428 
O 	 0.790346 	 4.336618 	 7.153286 
O 	 -5.053471 	 -2.100040 	 -3.781501 
O 	 -7.117370 	 3.733053 	 -1.350850 
O 	 -3.489935 	 -1.487831 	 -0.842887 
O 	 3.378739 	 -2.161989 	 6.391337 
O 	 -0.393364 	 -1.112193 	 2.235817 
O 	 6.012561 	 -2.458578 	 -4.497129 
O 	 1.019748 	 1.034052 	 6.598290 
O 	 7.637471 	 5.343172 	 1.515005 
O 	 6.468301 	 2.190248 	 5.922671 
O 	 2.730903 	 1.578697 	 0.135258 
O 	 -5.735672 	 5.363837 	 7.031018 
K 	 7.009298 	 -6.369056 	 -0.849170 
