333
conformation = 24
H 	 1.414720 	 -6.772894 	 2.475856 
H 	 0.268766 	 -5.682483 	 2.525720 
H 	 -2.914275 	 -6.787640 	 -1.148471 
H 	 -1.878756 	 -7.113812 	 -2.186456 
H 	 -4.155928 	 5.435890 	 2.246035 
H 	 -3.315226 	 6.195244 	 1.182040 
H 	 -6.514575 	 -3.219598 	 -6.881574 
H 	 7.038841 	 -2.615772 	 -6.294457 
H 	 -6.514687 	 0.649513 	 -6.441490 
H 	 -5.104734 	 -0.029772 	 -6.512207 
H 	 -1.914807 	 -4.682002 	 -0.550696 
H 	 -2.144790 	 -3.148492 	 -0.393135 
H 	 0.989076 	 -3.229544 	 -1.312417 
H 	 1.564676 	 -4.585712 	 -0.837829 
H 	 3.282226 	 -4.314105 	 1.574085 
H 	 1.937109 	 -3.676034 	 1.023451 
H 	 3.095957 	 0.684896 	 -3.411911 
H 	 1.649013 	 0.258706 	 -3.144635 
H 	 5.106622 	 -5.532033 	 -4.348190 
H 	 6.563581 	 -5.835014 	 -4.315702 
H 	 -0.966181 	 6.396380 	 0.992525 
H 	 -1.674440 	 -7.374538 	 1.804995 
H 	 1.394798 	 5.317851 	 0.583759 
H 	 0.293461 	 4.199855 	 0.700408 
H 	 3.461189 	 -6.747536 	 3.621644 
H 	 3.403788 	 6.621295 	 3.433596 
H 	 6.984596 	 5.488592 	 6.991213 
H 	 6.398578 	 4.188061 	 6.273441 
H 	 -6.490997 	 -3.000830 	 5.728316 
H 	 -5.928244 	 -3.820653 	 4.470418 
H 	 3.513432 	 6.495565 	 6.183466 
H 	 3.100187 	 4.992464 	 5.885656 
H 	 6.117049 	 -6.247428 	 4.260553 
H 	 6.834674 	 -4.832134 	 4.540677 
H 	 -1.270069 	 -3.501982 	 3.090504 
H 	 -1.343981 	 -4.024846 	 1.655879 
H 	 6.916698 	 3.947580 	 -6.828591 
H 	 6.537327 	 2.544679 	 -6.425684 
H 	 -0.154215 	 3.518930 	 -5.516091 
H 	 -0.595520 	 2.168478 	 -4.887005 
H 	 1.766951 	 -2.994744 	 -6.963866 
H 	 1.387992 	 -3.986513 	 -5.835786 
H 	 -3.454706 	 -1.437738 	 7.184023 
H 	 -4.288757 	 -2.681800 	 6.702873 
H 	 -3.260947 	 3.443748 	 7.065894 
H 	 -2.570960 	 4.193106 	 -6.650956 
H 	 2.777360 	 -3.067594 	 -2.936515 
H 	 3.207205 	 -1.539711 	 -3.048588 
H 	 -3.928224 	 -3.915316 	 3.682810 
H 	 -4.720439 	 -3.067872 	 2.758635 
H 	 -2.413432 	 3.334707 	 1.422780 
H 	 -1.706499 	 2.552698 	 0.343473 
H 	 0.288262 	 -4.932237 	 -3.593320 
H 	 1.520819 	 -5.792759 	 -3.106391 
H 	 7.209172 	 -1.716930 	 -0.701514 
H 	 -6.205098 	 -1.684927 	 -0.345228 
H 	 3.651480 	 -0.791225 	 -6.684676 
H 	 4.309283 	 0.431301 	 -5.949717 
H 	 1.920435 	 -0.932325 	 -0.372276 
H 	 1.238916 	 -1.014334 	 1.014465 
H 	 -5.944828 	 1.748875 	 0.583026 
H 	 -6.922075 	 0.654905 	 0.062692 
H 	 -2.651045 	 5.344536 	 4.678760 
H 	 -1.474871 	 4.729360 	 3.842145 
H 	 3.201308 	 4.003037 	 -6.780448 
H 	 4.551903 	 4.121515 	 7.432802 
H 	 7.355034 	 -1.724171 	 2.874750 
H 	 -7.181780 	 -3.245819 	 2.865336 
H 	 0.580964 	 -1.035980 	 4.843935 
H 	 1.043148 	 -0.394489 	 6.154069 
H 	 -2.247942 	 3.309240 	 5.141586 
H 	 -1.386646 	 1.956760 	 5.193529 
H 	 4.710848 	 -2.400898 	 -1.381541 
H 	 5.163392 	 -1.605949 	 -0.122350 
H 	 -5.490966 	 1.885899 	 -3.316093 
H 	 -6.725068 	 0.954827 	 -3.110885 
H 	 -2.051849 	 6.268886 	 -4.572883 
H 	 -3.117164 	 6.310885 	 -5.703606 
H 	 3.129055 	 -4.106708 	 5.470662 
H 	 2.268064 	 -4.621020 	 4.267505 
H 	 -2.690701 	 0.852780 	 -5.011471 
H 	 -3.241272 	 2.170581 	 -5.648232 
H 	 -0.739689 	 -2.932447 	 6.725353 
H 	 -1.105731 	 -4.132058 	 -7.168705 
H 	 4.019473 	 -3.833631 	 -6.195979 
H 	 3.412822 	 -5.304298 	 -6.096655 
H 	 5.593613 	 -4.735637 	 1.934161 
H 	 5.777969 	 -3.346600 	 1.459460 
H 	 -5.862177 	 0.704794 	 6.349130 
H 	 -5.012882 	 -0.520453 	 5.884334 
H 	 7.428104 	 6.194277 	 4.329938 
H 	 6.019641 	 6.006721 	 5.031973 
H 	 -4.648922 	 -5.351445 	 7.127329 
H 	 -3.450645 	 -4.588004 	 6.872444 
H 	 2.529577 	 5.420709 	 -1.660725 
H 	 3.408404 	 4.175066 	 -1.655850 
H 	 -2.726408 	 1.145276 	 1.815095 
H 	 -1.769090 	 -0.088185 	 1.985727 
H 	 -5.905846 	 4.262525 	 3.776333 
H 	 -5.356018 	 3.078417 	 2.895188 
H 	 2.982345 	 2.002281 	 5.228081 
H 	 3.560212 	 0.853805 	 4.207875 
H 	 3.716474 	 4.080850 	 2.223047 
H 	 3.135625 	 2.988666 	 3.116613 
H 	 3.954110 	 -5.127344 	 -1.715087 
H 	 3.218919 	 -6.329565 	 -1.071861 
H 	 -6.075374 	 -7.430710 	 2.248996 
H 	 -7.111914 	 -6.359140 	 2.584396 
H 	 -2.195323 	 6.782574 	 6.254118 
H 	 -3.203665 	 5.661930 	 6.446571 
H 	 -6.108884 	 3.249320 	 -5.000418 
H 	 -4.758981 	 4.005722 	 -4.811449 
H 	 6.482601 	 2.640419 	 -1.196254 
H 	 4.995225 	 2.943709 	 -0.696957 
H 	 -2.522374 	 -5.171440 	 -5.252512 
H 	 -1.600654 	 -6.303423 	 -5.701860 
H 	 -6.998580 	 0.579082 	 2.478116 
H 	 -6.598182 	 0.440844 	 3.943220 
H 	 -1.787104 	 -0.737975 	 -1.236159 
H 	 -0.628520 	 0.187511 	 -1.005372 
H 	 -5.144539 	 -3.391592 	 0.607438 
H 	 -5.313458 	 -4.838740 	 -0.001389 
H 	 -6.483188 	 -5.240373 	 -5.182086 
H 	 7.578061 	 -6.077486 	 -6.223757 
H 	 -4.470884 	 4.004049 	 0.804333 
H 	 -3.883942 	 2.833826 	 0.109153 
H 	 7.620522 	 6.430172 	 -3.886890 
H 	 -6.870780 	 5.241249 	 -2.972614 
H 	 1.023296 	 5.243550 	 3.668947 
H 	 0.495640 	 5.821777 	 4.983988 
H 	 5.680455 	 0.114553 	 7.074259 
H 	 6.362177 	 -0.462023 	 -6.538316 
H 	 -4.007572 	 -0.867951 	 1.762264 
H 	 -5.526929 	 -1.141340 	 1.995909 
H 	 0.157060 	 6.944529 	 -3.695495 
H 	 -0.590973 	 5.732665 	 -2.899410 
H 	 4.401203 	 2.282337 	 -3.266462 
H 	 3.890342 	 2.667151 	 -4.719232 
H 	 3.147946 	 -2.070562 	 2.483697 
H 	 4.216908 	 -2.456117 	 3.381084 
H 	 4.713215 	 0.801245 	 0.192806 
H 	 4.813093 	 0.043282 	 1.566819 
H 	 -4.550899 	 -4.923645 	 -3.235786 
H 	 -3.329091 	 -5.909135 	 -2.862511 
H 	 0.845127 	 -6.885227 	 6.562320 
H 	 0.336497 	 -6.904005 	 5.076461 
H 	 -5.158881 	 6.895999 	 4.519848 
H 	 -5.778755 	 5.829520 	 5.496908 
H 	 -0.644266 	 1.887150 	 2.813649 
H 	 0.315609 	 2.786877 	 3.538203 
H 	 5.752044 	 0.715091 	 -3.331877 
H 	 6.344359 	 -0.013173 	 -2.063470 
H 	 -3.118252 	 -5.988782 	 4.182988 
H 	 -3.886303 	 -5.894992 	 2.900531 
H 	 6.407754 	 -2.021364 	 6.159782 
H 	 5.723572 	 -1.317243 	 4.901662 
H 	 6.331857 	 3.742189 	 1.477513 
H 	 6.092849 	 2.271274 	 1.470329 
H 	 1.595259 	 -0.087524 	 -5.438505 
H 	 0.445021 	 -1.139923 	 -5.590202 
H 	 -3.197206 	 -1.654721 	 -4.950459 
H 	 -1.857875 	 -1.533483 	 -5.616821 
H 	 -1.134133 	 3.571215 	 -3.329718 
H 	 -0.928838 	 3.663793 	 -1.807464 
H 	 4.994684 	 6.780035 	 -2.285220 
H 	 6.056448 	 5.759452 	 -2.244311 
H 	 -1.814524 	 -4.024106 	 -3.009361 
H 	 -1.048183 	 -2.702384 	 -3.341020 
H 	 -0.968449 	 -0.512089 	 6.289538 
H 	 -2.125621 	 0.593492 	 6.312419 
H 	 -2.757823 	 -1.453043 	 3.720814 
H 	 -2.420666 	 -2.308865 	 5.000510 
H 	 -5.876862 	 -7.259157 	 6.264527 
H 	 -6.224417 	 -5.855180 	 5.769707 
H 	 1.066470 	 -6.413304 	 0.415941 
H 	 0.259652 	 -6.575157 	 -0.860430 
H 	 -4.726700 	 4.995189 	 -2.656698 
H 	 -3.373354 	 5.556451 	 -2.206377 
H 	 -4.836637 	 -7.131785 	 -1.563702 
H 	 -5.433677 	 -7.500109 	 -0.119723 
H 	 2.237772 	 5.224748 	 -3.999923 
H 	 3.628955 	 5.397003 	 -4.698599 
H 	 0.843496 	 2.582567 	 -2.396401 
H 	 1.057107 	 2.149867 	 -0.940625 
H 	 -5.251846 	 -6.913659 	 -5.141835 
H 	 -5.408434 	 6.960100 	 -6.234321 
H 	 -6.494926 	 -3.163860 	 -2.076479 
H 	 7.201464 	 -3.233160 	 -3.032340 
H 	 4.654421 	 7.318126 	 1.446192 
H 	 5.142257 	 6.631834 	 0.046951 
H 	 5.728267 	 7.074987 	 -4.731432 
H 	 5.676652 	 6.274226 	 -6.104220 
H 	 6.628270 	 -6.990676 	 7.076662 
H 	 5.820288 	 -5.743005 	 -7.407527 
H 	 1.208086 	 -6.560316 	 -5.561011 
H 	 2.089179 	 7.161613 	 -6.007771 
H 	 -3.250686 	 0.754959 	 -1.705872 
H 	 -2.328350 	 1.985942 	 -1.979485 
H 	 0.474385 	 5.595835 	 -6.932406 
H 	 -0.408516 	 4.578732 	 7.109811 
H 	 -5.591038 	 -0.931875 	 -4.294720 
H 	 -5.743368 	 -2.440860 	 -3.845967 
H 	 -6.078384 	 3.583337 	 -1.193954 
H 	 -7.052358 	 4.485178 	 -0.262823 
H 	 -4.288834 	 -1.500305 	 -0.698982 
H 	 -4.348994 	 -1.438775 	 -2.294096 
H 	 2.580100 	 -1.772656 	 6.526629 
H 	 4.192813 	 -1.766423 	 6.436884 
H 	 -0.405199 	 -1.899886 	 2.134617 
H 	 -0.511733 	 -0.912100 	 0.864088 
H 	 6.179850 	 -1.636441 	 -4.230017 
H 	 5.001776 	 -2.361732 	 -4.813547 
H 	 0.885684 	 1.769126 	 6.928093 
H 	 2.082490 	 1.082049 	 -7.304369 
H 	 -7.156672 	 4.772062 	 1.958474 
H 	 6.921323 	 5.997025 	 1.341798 
H 	 5.557274 	 2.186280 	 5.124864 
H 	 7.060736 	 2.392217 	 4.560972 
H 	 2.511055 	 0.958749 	 0.438205 
H 	 2.521042 	 2.462149 	 1.099032 
H 	 -5.708175 	 5.523190 	 -7.286791 
O 	 0.501077 	 -6.571451 	 2.181475 
O 	 -2.212099 	 -6.333461 	 -1.686250 
O 	 -4.197646 	 5.753499 	 1.316005 
O 	 -7.230191 	 -2.578619 	 -7.054383 
O 	 -5.716173 	 0.462855 	 -5.919269 
O 	 -2.255384 	 -4.008686 	 0.075177 
O 	 1.843228 	 -3.701328 	 -1.221454 
O 	 2.332382 	 -4.054768 	 1.829015 
O 	 2.543017 	 0.211246 	 -2.737123 
O 	 5.750243 	 -6.092107 	 -3.823484 
O 	 -1.762057 	 6.923329 	 1.065568 
O 	 0.516992 	 5.043546 	 0.270844 
O 	 3.209369 	 -7.451676 	 2.949482 
O 	 6.129160 	 5.070761 	 6.652154 
O 	 -6.730339 	 -3.497359 	 4.930136 
O 	 2.983802 	 5.921093 	 5.589536 
O 	 6.366158 	 -5.360498 	 3.848027 
O 	 -0.690215 	 -3.779781 	 2.331929 
O 	 7.184741 	 3.273063 	 -6.177095 
O 	 0.011562 	 2.929173 	 -4.765022 
O 	 1.251735 	 -3.065502 	 -6.134361 
O 	 -4.385348 	 -1.789437 	 7.103143 
O 	 -3.436934 	 4.019766 	 -7.049098 
O 	 3.506916 	 -2.478603 	 -3.227421 
O 	 -4.791636 	 -3.917273 	 3.221958 
O 	 -1.633051 	 2.710020 	 1.311504 
O 	 1.063547 	 -5.476090 	 -3.931595 
O 	 -6.828535 	 -1.287272 	 -0.968987 
O 	 3.430596 	 0.050728 	 -6.191225 
O 	 2.135378 	 -0.994656 	 0.572981 
O 	 -6.745996 	 1.260554 	 0.827286 
O 	 -2.465260 	 4.629387 	 3.982095 
O 	 3.846817 	 3.443400 	 -7.276529 
O 	 7.086309 	 -2.599924 	 2.493710 
O 	 0.521836 	 -1.170976 	 5.807647 
O 	 -2.019537 	 2.493656 	 5.705395 
O 	 5.525225 	 -2.175781 	 -0.846121 
O 	 -5.867276 	 1.216854 	 -2.728682 
O 	 -2.164394 	 6.083359 	 -5.539410 
O 	 3.010885 	 -4.851705 	 4.858165 
O 	 -2.642309 	 1.825974 	 -4.943470 
O 	 -1.347938 	 -3.713530 	 6.864676 
O 	 4.248620 	 -4.789323 	 -6.247008 
O 	 5.290534 	 -4.161807 	 1.184392 
O 	 -5.426539 	 0.325798 	 5.537597 
O 	 6.442283 	 6.335691 	 4.209290 
O 	 -4.261153 	 -4.479318 	 7.388308 
O 	 2.454257 	 4.454326 	 -1.692854 
O 	 -2.677543 	 0.248648 	 2.153893 
O 	 -6.191570 	 3.452812 	 3.280340 
O 	 3.495306 	 1.801300 	 4.404532 
O 	 2.868634 	 3.740499 	 2.551402 
O 	 3.773181 	 -6.077700 	 -1.867759 
O 	 -6.357897 	 -6.525211 	 1.996842 
O 	 -3.041637 	 6.440433 	 5.861478 
O 	 -5.531704 	 3.674558 	 -4.316712 
O 	 5.509455 	 2.497639 	 -1.392178 
O 	 -1.583668 	 -5.369050 	 -5.454255 
O 	 7.632395 	 0.105282 	 3.313957 
O 	 -0.850989 	 -0.762573 	 -0.899416 
O 	 -5.732521 	 -3.963062 	 0.075936 
O 	 -7.034491 	 -6.049144 	 -5.278295 
O 	 -4.235535 	 3.039978 	 1.000110 
O 	 7.568059 	 6.103176 	 -2.959426 
O 	 0.212482 	 5.381891 	 4.168967 
O 	 5.887190 	 0.338268 	 -6.886901 
O 	 -4.733334 	 -1.539142 	 1.587413 
O 	 -0.502854 	 6.703412 	 -3.025804 
O 	 4.305980 	 1.976884 	 -4.178695 
O 	 3.795451 	 -1.643839 	 3.076811 
O 	 5.287223 	 0.232504 	 0.747466 
O 	 -4.099251 	 -5.765378 	 -3.456370 
O 	 0.090807 	 -7.126117 	 5.953906 
O 	 -5.539100 	 5.981932 	 4.490113 
O 	 0.035499 	 1.844957 	 3.534559 
O 	 6.446880 	 0.106834 	 -3.031772 
O 	 -3.033782 	 -6.224012 	 3.243566 
O 	 5.720202 	 -1.387685 	 5.866921 
O 	 5.596479 	 3.110066 	 1.666087 
O 	 0.643287 	 -0.283916 	 -5.214380 
O 	 -2.232250 	 -1.696208 	 -4.738288 
O 	 -1.419953 	 4.072919 	 -2.537039 
O 	 5.198468 	 5.960868 	 -1.803219 
O 	 -0.933736 	 -3.673126 	 -3.171390 
O 	 -1.737000 	 -0.169661 	 6.799368 
O 	 -2.368650 	 -2.279544 	 4.023350 
O 	 -5.451660 	 -6.453562 	 5.880374 
O 	 1.147315 	 -6.333462 	 -0.572898 
O 	 -4.352273 	 5.664369 	 -2.027295 
O 	 -5.175235 	 -6.768074 	 -0.717333 
O 	 2.660505 	 5.543092 	 -4.817869 
O 	 0.400071 	 2.126402 	 -1.652192 
O 	 -4.835221 	 7.160654 	 -5.408326 
O 	 -6.823902 	 -3.634610 	 -2.882714 
O 	 5.322652 	 7.303381 	 0.745493 
O 	 5.221849 	 6.446039 	 -5.269015 
O 	 6.649128 	 -5.997727 	 7.104815 
O 	 1.609704 	 -6.999125 	 -6.395518 
O 	 -2.671264 	 1.421126 	 -1.248962 
O 	 0.221065 	 4.658005 	 -7.056496 
O 	 -5.051504 	 -1.732459 	 -3.993129 
O 	 -6.989170 	 3.919172 	 -1.082430 
O 	 -3.740011 	 -1.366003 	 -1.496565 
O 	 3.411914 	 -2.226196 	 6.808179 
O 	 -0.221929 	 -0.959207 	 1.842316 
O 	 6.000395 	 -2.285187 	 -4.938777 
O 	 1.596120 	 1.160973 	 6.739588 
O 	 -7.214524 	 5.424738 	 1.225656 
O 	 6.505986 	 2.434535 	 5.355324 
O 	 2.622229 	 1.941450 	 0.249417 
O 	 -6.335097 	 6.147898 	 7.187700 
K 	 6.708025 	 -5.804912 	 -0.828774 
