333
conformation = 11
H 	 1.614300 	 -6.764477 	 2.250075 
H 	 0.997356 	 -5.438867 	 2.043990 
H 	 -2.176788 	 -7.226693 	 -0.633153 
H 	 -1.596335 	 -7.389013 	 -2.070359 
H 	 -4.949330 	 5.975909 	 1.581687 
H 	 -3.440798 	 6.253263 	 1.265848 
H 	 -6.573076 	 -2.356332 	 -7.244821 
H 	 7.073655 	 -2.383198 	 -6.311179 
H 	 -6.983262 	 0.918825 	 -5.752730 
H 	 -6.324014 	 -0.454365 	 -6.129273 
H 	 -2.616243 	 -4.583649 	 -0.947235 
H 	 -3.266688 	 -3.621293 	 0.062290 
H 	 0.541047 	 -3.291303 	 -1.667251 
H 	 1.221779 	 -4.554635 	 -1.045666 
H 	 3.520851 	 -4.150299 	 1.501652 
H 	 2.289353 	 -3.371021 	 1.073750 
H 	 3.374524 	 0.500448 	 -3.099419 
H 	 1.989151 	 0.054734 	 -3.478653 
H 	 5.052009 	 -5.760760 	 -4.483050 
H 	 6.550896 	 -5.694482 	 -4.151888 
H 	 -0.793190 	 6.580758 	 0.727587 
H 	 -1.497918 	 -7.111519 	 1.476925 
H 	 1.200757 	 5.269489 	 -0.329857 
H 	 0.149846 	 4.507836 	 0.541503 
H 	 3.459027 	 -7.252616 	 3.651059 
H 	 3.189274 	 6.269768 	 2.901194 
H 	 7.142640 	 5.258401 	 6.548441 
H 	 5.784942 	 4.461139 	 6.100221 
H 	 -5.894176 	 -3.618008 	 5.771342 
H 	 -6.049274 	 -3.602243 	 4.193064 
H 	 3.148378 	 6.310115 	 5.848651 
H 	 3.318069 	 4.748824 	 6.140023 
H 	 6.128297 	 -6.274844 	 3.888304 
H 	 6.748230 	 -4.984905 	 4.343932 
H 	 -1.161368 	 -4.135587 	 2.745221 
H 	 -1.117671 	 -3.917729 	 1.201761 
H 	 7.016042 	 3.844383 	 -6.231510 
H 	 6.899277 	 2.746678 	 -7.141740 
H 	 0.086126 	 2.937234 	 -5.859785 
H 	 -0.270993 	 1.754181 	 -4.896811 
H 	 2.255450 	 -3.052276 	 -7.069096 
H 	 1.153706 	 -3.948133 	 -6.456305 
H 	 -3.991370 	 -1.196345 	 7.243497 
H 	 -4.108530 	 -2.705088 	 7.251219 
H 	 -2.958672 	 4.118026 	 7.228415 
H 	 -3.381984 	 4.472418 	 -6.236299 
H 	 2.662153 	 -3.243697 	 -3.451005 
H 	 3.032556 	 -1.761855 	 -3.247452 
H 	 -4.045790 	 -3.925346 	 3.273396 
H 	 -4.822191 	 -3.004615 	 2.348819 
H 	 -1.748978 	 3.793009 	 1.387089 
H 	 -1.365850 	 2.817704 	 0.202028 
H 	 0.813134 	 -4.858186 	 -3.376236 
H 	 1.955767 	 -5.921991 	 -2.940411 
H 	 7.216710 	 -1.819876 	 -0.477831 
H 	 -6.290839 	 -1.798021 	 0.255904 
H 	 2.754002 	 -0.848420 	 -6.930116 
H 	 3.587023 	 0.179244 	 -6.149410 
H 	 1.716638 	 -1.514282 	 -0.282573 
H 	 1.435086 	 -1.042149 	 1.203583 
H 	 -6.183311 	 1.764189 	 0.774495 
H 	 -7.036483 	 0.662190 	 0.111256 
H 	 -3.002455 	 4.978775 	 3.972896 
H 	 -1.498363 	 4.856085 	 3.514828 
H 	 2.924004 	 4.484505 	 -6.830770 
H 	 4.313994 	 3.908562 	 -6.939770 
H 	 7.038969 	 -1.789144 	 2.167968 
H 	 7.056639 	 -2.988116 	 3.096954 
H 	 0.575928 	 -1.669679 	 4.552495 
H 	 0.644461 	 -0.702122 	 5.757350 
H 	 -2.327850 	 2.800733 	 4.754404 
H 	 -1.214470 	 2.017845 	 5.018494 
H 	 4.216428 	 -2.102954 	 -1.453564 
H 	 4.985798 	 -1.439664 	 -0.237304 
H 	 -5.454383 	 1.701248 	 -2.900431 
H 	 -6.709781 	 0.812959 	 -2.613005 
H 	 -1.817011 	 6.684882 	 -4.698871 
H 	 -3.219255 	 6.834854 	 -5.395794 
H 	 3.170699 	 -4.067430 	 5.720936 
H 	 3.258187 	 -4.810804 	 4.384377 
H 	 -2.416604 	 0.446324 	 -4.468642 
H 	 -3.091622 	 1.393797 	 -5.526348 
H 	 -1.064935 	 -3.930754 	 5.670592 
H 	 -1.112074 	 -4.757564 	 6.967808 
H 	 3.207073 	 -4.448316 	 -6.097844 
H 	 3.555444 	 -5.879301 	 -5.867099 
H 	 5.738441 	 -3.973058 	 1.467102 
H 	 5.204865 	 -3.951055 	 -0.023395 
H 	 -4.834739 	 1.087414 	 5.529387 
H 	 -5.829240 	 -0.082368 	 5.952151 
H 	 7.238200 	 6.784778 	 3.885158 
H 	 6.035200 	 6.294769 	 4.648155 
H 	 -4.640904 	 -5.410912 	 -7.474149 
H 	 -3.316588 	 -4.751956 	 7.130184 
H 	 2.498002 	 4.623693 	 -2.740029 
H 	 3.534769 	 4.952206 	 -1.707909 
H 	 -2.921640 	 1.113825 	 2.463816 
H 	 -2.020442 	 -0.236070 	 2.280215 
H 	 -5.682232 	 4.228907 	 3.582187 
H 	 -5.544932 	 2.925452 	 2.769581 
H 	 2.801089 	 1.440719 	 5.532660 
H 	 3.214429 	 1.037576 	 4.111036 
H 	 3.607823 	 3.860875 	 2.041561 
H 	 2.833937 	 3.269308 	 3.191976 
H 	 3.742445 	 -5.156098 	 -1.624176 
H 	 2.879591 	 -6.183892 	 -0.857100 
H 	 -6.515319 	 -7.530179 	 1.751932 
H 	 -6.595284 	 -6.207010 	 2.607597 
H 	 -2.386829 	 7.059680 	 6.378818 
H 	 -3.686094 	 6.280987 	 6.823935 
H 	 -6.325110 	 3.587439 	 -4.492261 
H 	 -4.996257 	 3.007755 	 -4.780763 
H 	 5.888476 	 2.869963 	 -1.031049 
H 	 4.326018 	 2.737539 	 -1.045692 
H 	 -2.539119 	 -5.529040 	 -5.692930 
H 	 -1.176119 	 -6.326325 	 -5.791296 
H 	 7.494911 	 0.400678 	 2.521269 
H 	 -6.722480 	 0.166860 	 3.937150 
H 	 -1.760075 	 -1.032956 	 -0.869001 
H 	 -0.704021 	 0.111902 	 -1.080227 
H 	 -5.418285 	 -4.813291 	 0.721291 
H 	 -5.358704 	 -5.141833 	 -0.789216 
H 	 -5.975843 	 -4.836780 	 -5.664822 
H 	 -7.310318 	 -5.457995 	 -6.114201 
H 	 -4.343698 	 3.637556 	 0.873728 
H 	 -3.747906 	 2.388417 	 0.204962 
H 	 -7.334658 	 6.094857 	 -3.808771 
H 	 -7.078943 	 5.382057 	 -2.395371 
H 	 1.176856 	 5.370919 	 4.266908 
H 	 0.305904 	 6.490727 	 3.593132 
H 	 5.989815 	 -0.246642 	 -7.406733 
H 	 5.990650 	 -0.620624 	 -5.954020 
H 	 -4.387302 	 -0.662808 	 2.190753 
H 	 -5.853344 	 -0.890202 	 2.332400 
H 	 0.366456 	 6.908293 	 -3.506722 
H 	 -0.550424 	 5.673028 	 -3.110708 
H 	 4.800587 	 2.470095 	 -3.250685 
H 	 5.261744 	 2.655107 	 -4.751571 
H 	 3.314247 	 -2.334108 	 2.622620 
H 	 4.272955 	 -1.646837 	 3.634560 
H 	 4.894589 	 0.609150 	 0.169877 
H 	 4.263571 	 -0.099276 	 1.417869 
H 	 -5.247666 	 -5.202698 	 -3.338759 
H 	 -3.948945 	 -5.943265 	 -2.963218 
H 	 0.249466 	 -7.235712 	 6.841973 
H 	 0.805354 	 -6.506992 	 5.599993 
H 	 -5.269691 	 6.722104 	 4.501903 
H 	 -5.955340 	 5.738055 	 5.456146 
H 	 -0.364504 	 1.342596 	 2.852826 
H 	 0.311515 	 2.696540 	 2.825916 
H 	 5.747766 	 0.661134 	 -3.322657 
H 	 5.925517 	 -0.361380 	 -2.132378 
H 	 -2.863875 	 -6.866430 	 3.727428 
H 	 -3.839689 	 -6.452063 	 2.655926 
H 	 6.728946 	 -1.963922 	 5.499119 
H 	 6.311725 	 -0.808886 	 4.612222 
H 	 6.235831 	 4.056798 	 1.458036 
H 	 5.851619 	 2.510565 	 1.370109 
H 	 1.007210 	 -0.284563 	 -5.263914 
H 	 -0.369966 	 -0.876574 	 -4.613626 
H 	 -3.296552 	 -1.831901 	 -4.554976 
H 	 -2.520715 	 -1.749954 	 -5.847493 
H 	 -1.019324 	 3.821049 	 -3.740259 
H 	 -0.541702 	 3.727502 	 -2.287017 
H 	 4.572370 	 6.916747 	 -2.090928 
H 	 5.765570 	 5.917665 	 -2.338959 
H 	 -1.138350 	 -4.827708 	 -2.607438 
H 	 -1.725557 	 -3.768701 	 -3.565960 
H 	 -1.610462 	 -0.696236 	 7.127123 
H 	 -2.380623 	 0.530940 	 6.554611 
H 	 -3.517097 	 -1.920703 	 4.216424 
H 	 -2.101817 	 -1.669287 	 4.153027 
H 	 -5.608535 	 -7.116357 	 6.466702 
H 	 -6.684625 	 -6.086530 	 6.247239 
H 	 0.408400 	 -6.589414 	 0.327254 
H 	 -0.165627 	 -6.595053 	 -1.114948 
H 	 -4.450888 	 4.936253 	 -2.940482 
H 	 -3.137928 	 4.793752 	 -2.180291 
H 	 -5.478220 	 7.132200 	 -1.857116 
H 	 -4.886920 	 7.053247 	 -0.456211 
H 	 1.824683 	 4.471264 	 -4.982362 
H 	 3.112505 	 5.387173 	 -4.808999 
H 	 0.377230 	 1.435280 	 -2.642297 
H 	 1.411032 	 1.757774 	 -1.579550 
H 	 -5.529332 	 -7.368947 	 -5.148529 
H 	 -5.641299 	 6.458148 	 -6.378166 
H 	 -7.106299 	 -3.148725 	 -1.866668 
H 	 7.243267 	 -3.612223 	 -3.267376 
H 	 4.679960 	 7.087636 	 1.480748 
H 	 5.031729 	 6.062629 	 0.310197 
H 	 5.528238 	 6.925753 	 -4.732819 
H 	 5.801247 	 6.008129 	 -5.987201 
H 	 6.073121 	 -7.069896 	 7.229404 
H 	 5.834381 	 -5.553240 	 7.351453 
H 	 1.138222 	 -6.327337 	 -5.294611 
H 	 0.762096 	 7.193326 	 -5.890619 
H 	 -3.506076 	 0.901933 	 -1.567123 
H 	 -2.874522 	 1.999907 	 -2.542872 
H 	 -0.334273 	 4.714227 	 7.296279 
H 	 0.925383 	 4.575203 	 6.402920 
H 	 -5.705533 	 -0.940805 	 -4.027676 
H 	 -5.786094 	 -2.438905 	 -3.582721 
H 	 -6.519515 	 3.010653 	 -1.663827 
H 	 -7.098080 	 3.985223 	 -0.582950 
H 	 -4.475598 	 -1.750424 	 -0.491738 
H 	 -3.895689 	 -1.836693 	 -1.989038 
H 	 2.583932 	 -1.898401 	 6.018299 
H 	 4.147386 	 -1.967884 	 5.976296 
H 	 -0.441153 	 -2.059651 	 2.137622 
H 	 -0.548628 	 -1.077269 	 1.027060 
H 	 5.890177 	 -1.474564 	 -3.901923 
H 	 4.782811 	 -2.503667 	 -4.533465 
H 	 0.910960 	 1.869858 	 6.521258 
H 	 1.607354 	 1.019477 	 -7.300619 
H 	 -7.189063 	 5.060293 	 2.287633 
H 	 6.690213 	 6.032954 	 1.567212 
H 	 5.566633 	 2.192699 	 5.184963 
H 	 7.117137 	 2.635630 	 5.154888 
H 	 2.568278 	 0.683508 	 0.144013 
H 	 2.444762 	 2.226188 	 0.487593 
H 	 -5.844430 	 4.757423 	 -7.488475 
O 	 0.736273 	 -6.393196 	 2.153240 
O 	 -2.053570 	 -6.748512 	 -1.491687 
O 	 -4.276201 	 5.832116 	 0.908108 
O 	 7.355283 	 -2.553334 	 -7.231611 
O 	 -6.162568 	 0.386769 	 -5.676960 
O 	 -2.435952 	 -4.063957 	 -0.122538 
O 	 1.274973 	 -3.576287 	 -1.087665 
O 	 2.638211 	 -3.912409 	 1.815172 
O 	 2.666911 	 -0.098484 	 -2.792448 
O 	 5.712300 	 -6.083375 	 -3.805344 
O 	 -1.622810 	 7.064744 	 0.841146 
O 	 0.312899 	 5.364042 	 0.053513 
O 	 3.150735 	 7.236025 	 2.820655 
O 	 6.113119 	 5.169081 	 6.663340 
O 	 -6.551113 	 -3.488712 	 5.068279 
O 	 3.253757 	 5.418188 	 5.425674 
O 	 6.539980 	 -5.429777 	 3.496132 
O 	 -0.564191 	 -3.849888 	 2.017440 
O 	 7.043154 	 2.854028 	 -6.147565 
O 	 0.234933 	 2.584841 	 -4.961611 
O 	 1.936604 	 -3.439058 	 -6.217376 
O 	 -4.675960 	 -1.913541 	 7.292955 
O 	 -3.515270 	 3.806662 	 -6.942496 
O 	 3.418409 	 -2.652540 	 -3.254508 
O 	 -4.879681 	 -3.886808 	 2.758468 
O 	 -1.116780 	 3.069411 	 1.130443 
O 	 1.406977 	 -5.603059 	 -3.689773 
O 	 -6.775264 	 -1.436575 	 -0.522958 
O 	 2.649308 	 -0.122086 	 -6.244331 
O 	 2.120231 	 -1.110323 	 0.522508 
O 	 -7.077019 	 1.358521 	 0.789647 
O 	 -2.356693 	 4.393370 	 3.481883 
O 	 3.378420 	 3.727760 	 -7.245399 
O 	 6.514289 	 -2.579299 	 2.399052 
O 	 0.599069 	 -1.651658 	 5.522696 
O 	 -1.903794 	 2.463348 	 5.564208 
O 	 5.102911 	 -2.035968 	 -1.006334 
O 	 -5.874082 	 1.139002 	 -2.233908 
O 	 -2.290862 	 6.523545 	 -5.551783 
O 	 2.804824 	 -4.841598 	 5.249264 
O 	 -2.734244 	 1.349185 	 -4.612232 
O 	 -1.479649 	 -3.915260 	 6.576248 
O 	 4.003477 	 -5.020961 	 -6.040977 
O 	 5.220096 	 -4.475078 	 0.784820 
O 	 -5.369478 	 0.345231 	 5.175998 
O 	 6.228275 	 6.836952 	 3.852994 
O 	 -4.022062 	 -4.747055 	 -7.107615 
O 	 2.547746 	 4.804941 	 -1.780048 
O 	 -2.878395 	 0.147632 	 2.608800 
O 	 -6.217684 	 3.480590 	 3.210685 
O 	 3.423383 	 1.719577 	 4.817752 
O 	 2.717654 	 3.887495 	 2.460202 
O 	 3.546629 	 -6.112722 	 -1.602120 
O 	 -6.102350 	 -6.647404 	 1.904307 
O 	 -3.225318 	 6.664199 	 6.051522 
O 	 -5.424571 	 3.523192 	 -4.086540 
O 	 5.138210 	 2.354506 	 -1.444066 
O 	 -1.569842 	 -5.451404 	 -5.677127 
O 	 7.431993 	 -0.123862 	 3.365930 
O 	 -0.811691 	 -0.813122 	 -0.775958 
O 	 -5.697460 	 -4.473667 	 -0.154912 
O 	 -6.775062 	 -5.254296 	 -5.300157 
O 	 -4.428101 	 2.649044 	 0.846888 
O 	 -7.186042 	 6.254042 	 -2.864737 
O 	 0.376456 	 5.558387 	 3.758899 
O 	 5.733366 	 0.159592 	 -6.537424 
O 	 -5.105227 	 -1.248587 	 1.814904 
O 	 -0.535544 	 6.627219 	 -3.383903 
O 	 4.714806 	 2.125719 	 -4.150361 
O 	 3.537533 	 -1.455975 	 3.035860 
O 	 5.040697 	 -0.083511 	 0.814149 
O 	 -4.461230 	 -5.606369 	 -3.713237 
O 	 0.044732 	 -7.013878 	 5.912702 
O 	 -5.847004 	 5.923597 	 4.423949 
O 	 0.136743 	 1.968288 	 3.445388 
O 	 6.273314 	 -0.117133 	 -3.002084 
O 	 -2.998847 	 -6.166805 	 3.069365 
O 	 5.959079 	 -1.367060 	 5.330005 
O 	 5.471409 	 3.419385 	 1.371555 
O 	 0.395632 	 -0.230313 	 -4.484599 
O 	 -2.390325 	 -1.641496 	 -4.871950 
O 	 -1.314519 	 3.981949 	 -2.822961 
O 	 4.854370 	 5.981645 	 -1.973044 
O 	 -1.074059 	 -3.873867 	 -2.854040 
O 	 -2.389351 	 -0.147000 	 7.289692 
O 	 -2.699699 	 -2.429981 	 4.052385 
O 	 -5.741009 	 -6.258630 	 6.039218 
O 	 0.665403 	 -6.435501 	 -0.598856 
O 	 -3.953292 	 5.343038 	 -2.201848 
O 	 -5.438538 	 -7.246648 	 -1.027980 
O 	 2.124656 	 5.377292 	 -4.747337 
O 	 0.465443 	 1.763375 	 -1.729510 
O 	 -5.236249 	 6.673258 	 -5.484214 
O 	 -6.965967 	 -3.796495 	 -2.581812 
O 	 5.269254 	 6.911039 	 0.720469 
O 	 5.548705 	 6.005075 	 -5.037704 
O 	 6.524713 	 -6.186608 	 7.115259 
O 	 1.006760 	 -6.807830 	 -6.113454 
O 	 -2.931631 	 1.704469 	 -1.598073 
O 	 0.619085 	 4.516811 	 7.335330 
O 	 -5.252202 	 -1.820409 	 -4.160105 
O 	 -7.198301 	 3.694489 	 -1.530230 
O 	 -3.705980 	 -1.525505 	 -1.058997 
O 	 3.367141 	 -2.236711 	 6.543116 
O 	 -0.497501 	 -1.074905 	 2.001976 
O 	 5.722294 	 -2.177863 	 -4.578176 
O 	 1.265627 	 0.978421 	 6.690362 
O 	 7.443938 	 5.435505 	 1.429877 
O 	 6.437416 	 2.188391 	 5.673479 
O 	 2.919954 	 1.566467 	 -0.083504 
O 	 -6.249728 	 5.542330 	 7.038760 
K 	 6.773458 	 -6.093215 	 -0.903781 
