333
conformation = 14
H 	 1.581553 	 -6.770936 	 2.331439 
H 	 0.667954 	 -5.436036 	 2.328777 
H 	 -2.133918 	 -7.285647 	 -0.790358 
H 	 -1.839418 	 -7.205281 	 -2.386506 
H 	 -5.010917 	 6.373464 	 1.334692 
H 	 -3.468970 	 6.209979 	 1.353032 
H 	 -6.657545 	 -2.358935 	 -6.877809 
H 	 6.785495 	 -2.424516 	 -6.485715 
H 	 -6.936034 	 0.841008 	 -5.613501 
H 	 -6.400282 	 -0.500873 	 -6.056411 
H 	 -2.649171 	 -4.791305 	 -0.673231 
H 	 -3.240549 	 -3.432975 	 -0.224845 
H 	 0.704719 	 -3.298020 	 -1.754692 
H 	 0.890136 	 -4.497337 	 -0.799598 
H 	 3.471929 	 -4.185163 	 1.220742 
H 	 2.163766 	 -3.366764 	 1.040249 
H 	 3.295230 	 0.545822 	 -3.206683 
H 	 1.877447 	 -0.038441 	 -3.522451 
H 	 4.994541 	 -5.539295 	 -4.375902 
H 	 6.541294 	 -5.814945 	 -4.131002 
H 	 -0.830374 	 6.568046 	 0.756752 
H 	 -1.460936 	 -7.111719 	 1.421127 
H 	 1.045157 	 4.811926 	 -0.349304 
H 	 0.165981 	 4.840326 	 0.850681 
H 	 3.366488 	 -6.935738 	 3.362615 
H 	 2.901375 	 6.522040 	 3.404205 
H 	 7.137143 	 5.211685 	 6.973764 
H 	 6.210775 	 4.362705 	 5.946932 
H 	 -6.208391 	 -3.408326 	 5.853847 
H 	 -5.877787 	 -3.694296 	 4.380793 
H 	 3.226199 	 6.373352 	 5.922149 
H 	 3.402996 	 4.888267 	 6.135403 
H 	 6.217095 	 -6.334658 	 3.857082 
H 	 6.815472 	 -4.992009 	 4.320730 
H 	 -1.313821 	 -3.877340 	 2.732996 
H 	 -1.115326 	 -4.073720 	 1.227447 
H 	 6.902712 	 3.895653 	 -6.521942 
H 	 7.174139 	 2.501386 	 -7.048598 
H 	 0.307517 	 3.018576 	 -5.851133 
H 	 -0.466450 	 1.887032 	 -5.143461 
H 	 2.143934 	 -3.035007 	 -7.127957 
H 	 0.948388 	 -3.841542 	 -6.509156 
H 	 -4.062425 	 -1.209038 	 6.917682 
H 	 -4.182385 	 -2.761403 	 7.016763 
H 	 -2.781488 	 3.950164 	 7.258659 
H 	 -3.384221 	 4.561620 	 -6.355780 
H 	 2.546774 	 -3.101210 	 -3.434770 
H 	 2.941273 	 -1.644349 	 -3.226897 
H 	 -3.992105 	 -4.148276 	 3.075761 
H 	 -4.783170 	 -2.946011 	 2.438472 
H 	 -2.093741 	 3.420253 	 1.549367 
H 	 -1.536889 	 2.716796 	 0.240970 
H 	 0.798110 	 -4.749633 	 -3.593198 
H 	 1.763094 	 -5.863149 	 -3.051892 
H 	 7.153332 	 -1.593977 	 -0.715475 
H 	 -6.458030 	 -1.868018 	 0.096019 
H 	 2.828999 	 -0.897127 	 -6.694502 
H 	 3.604296 	 0.357726 	 -6.333539 
H 	 1.625039 	 -1.457856 	 -0.257159 
H 	 1.477648 	 -1.227433 	 1.309943 
H 	 -6.183276 	 1.757375 	 0.509469 
H 	 -7.079363 	 0.631700 	 0.074876 
H 	 -2.981081 	 4.960447 	 4.110983 
H 	 -1.505172 	 4.943395 	 3.629061 
H 	 2.787150 	 4.275884 	 -6.859724 
H 	 4.307198 	 4.026221 	 -7.137539 
H 	 7.124938 	 -1.842451 	 2.023484 
H 	 6.905076 	 -2.630594 	 3.320322 
H 	 0.525749 	 -1.341695 	 4.611417 
H 	 0.792184 	 -0.666840 	 5.983183 
H 	 -2.153485 	 3.110293 	 4.708398 
H 	 -1.244217 	 2.058480 	 5.132511 
H 	 4.284039 	 -2.172260 	 -1.403536 
H 	 5.094934 	 -1.354516 	 -0.258192 
H 	 -5.922886 	 1.943018 	 -3.078289 
H 	 -6.773878 	 0.698530 	 -2.631823 
H 	 -1.760718 	 6.607562 	 -4.714708 
H 	 -3.226367 	 6.581260 	 -5.276164 
H 	 3.254604 	 -4.140300 	 5.696584 
H 	 3.160149 	 -4.577773 	 4.249461 
H 	 -2.567024 	 0.526760 	 -4.682711 
H 	 -3.330120 	 1.592309 	 -5.531769 
H 	 -1.059788 	 -3.679705 	 5.798896 
H 	 -1.099083 	 -4.617663 	 6.998916 
H 	 3.201233 	 -4.331966 	 -5.905447 
H 	 3.527256 	 -5.731756 	 -6.361572 
H 	 5.697444 	 -3.927868 	 1.490290 
H 	 4.797614 	 -3.663117 	 0.229657 
H 	 -5.313394 	 1.268469 	 5.426081 
H 	 -5.680202 	 -0.078556 	 6.051279 
H 	 7.164233 	 6.789026 	 3.896235 
H 	 6.037055 	 6.219062 	 4.652091 
H 	 -4.736806 	 -5.263409 	 7.226358 
H 	 -3.273053 	 -4.614342 	 7.059131 
H 	 2.305430 	 5.126450 	 -2.672086 
H 	 3.485725 	 4.948277 	 -1.691562 
H 	 -2.944621 	 1.076258 	 2.082342 
H 	 -1.982632 	 -0.175332 	 2.253396 
H 	 -5.808429 	 4.275747 	 3.579803 
H 	 -5.548717 	 3.011343 	 2.744209 
H 	 2.677371 	 1.349910 	 5.254181 
H 	 3.181873 	 1.196304 	 3.889934 
H 	 3.660151 	 3.818632 	 2.232138 
H 	 2.698567 	 3.479797 	 3.333693 
H 	 3.457669 	 -5.159645 	 -1.975420 
H 	 2.874779 	 -6.229650 	 -1.049514 
H 	 -6.889689 	 -7.234708 	 1.516684 
H 	 -6.686006 	 -6.158180 	 2.583273 
H 	 -2.529829 	 7.157757 	 6.190264 
H 	 -3.693612 	 6.315014 	 6.801644 
H 	 -6.227913 	 3.960682 	 -4.683079 
H 	 -5.134282 	 2.946227 	 -4.810747 
H 	 5.938387 	 3.011796 	 -1.218092 
H 	 4.458773 	 2.806598 	 -0.987158 
H 	 -2.526023 	 -5.407374 	 -5.346371 
H 	 -1.481438 	 -6.343427 	 -5.970898 
H 	 7.333409 	 0.576299 	 2.590983 
H 	 -6.966334 	 0.275915 	 4.032091 
H 	 -1.799547 	 -1.098301 	 -0.917630 
H 	 -0.900371 	 0.203423 	 -1.049296 
H 	 -5.749107 	 -4.607672 	 0.692782 
H 	 -5.172068 	 -5.010649 	 -0.563673 
H 	 -6.055672 	 -5.004773 	 -5.508959 
H 	 -7.200272 	 -5.700549 	 -6.283066 
H 	 -4.610613 	 3.696970 	 0.900806 
H 	 -3.928974 	 2.509424 	 0.052306 
H 	 7.254382 	 6.005318 	 -3.832118 
H 	 -6.976748 	 5.375177 	 -2.614123 
H 	 1.117158 	 5.313516 	 4.218294 
H 	 0.240168 	 6.506890 	 3.709460 
H 	 5.573311 	 -0.048540 	 7.277016 
H 	 5.462392 	 -0.591007 	 -6.228214 
H 	 -4.247958 	 -0.690178 	 1.873571 
H 	 -5.785283 	 -0.827467 	 2.157536 
H 	 0.330584 	 6.844506 	 -3.350584 
H 	 -0.790453 	 5.850625 	 -2.928461 
H 	 4.780505 	 2.498605 	 -3.327760 
H 	 5.183282 	 2.478769 	 -4.824565 
H 	 3.317237 	 -2.367762 	 2.531840 
H 	 4.466691 	 -1.385603 	 2.972811 
H 	 4.834910 	 0.879556 	 0.209979 
H 	 4.206956 	 -0.028501 	 1.264617 
H 	 -5.004079 	 -5.166704 	 -3.083953 
H 	 -4.022652 	 -6.287077 	 -3.076360 
H 	 -0.003318 	 -7.218873 	 6.817469 
H 	 0.486383 	 -6.158104 	 5.809895 
H 	 -5.206000 	 6.732902 	 4.417123 
H 	 -6.020718 	 5.755810 	 5.270224 
H 	 -0.320004 	 1.458009 	 2.621873 
H 	 0.157215 	 2.857439 	 2.985917 
H 	 5.679554 	 0.609085 	 -3.488527 
H 	 5.750051 	 -0.351271 	 -2.285786 
H 	 -3.034979 	 -6.667330 	 3.863663 
H 	 -3.991476 	 -6.069677 	 2.744261 
H 	 6.730942 	 -1.671344 	 5.624440 
H 	 6.032388 	 -0.723223 	 4.672496 
H 	 6.153230 	 4.055723 	 1.509713 
H 	 5.815889 	 2.500658 	 1.529320 
H 	 1.162887 	 -0.177066 	 -5.401991 
H 	 0.027844 	 -1.073145 	 -4.943956 
H 	 -3.271869 	 -2.059422 	 -4.576150 
H 	 -2.594394 	 -1.257903 	 -5.756990 
H 	 -1.259010 	 3.737737 	 -3.752660 
H 	 -0.790444 	 3.388161 	 -2.420967 
H 	 4.341550 	 6.756414 	 -2.183255 
H 	 5.720023 	 6.013119 	 -2.399744 
H 	 -1.135338 	 -4.794927 	 -2.997501 
H 	 -1.423352 	 -3.548358 	 -3.830112 
H 	 -1.490392 	 -0.548902 	 6.783294 
H 	 -2.336139 	 0.739184 	 6.674687 
H 	 -3.545937 	 -1.891186 	 3.887107 
H 	 -2.101896 	 -1.749176 	 4.331305 
H 	 -5.558576 	 -7.168016 	 6.313348 
H 	 -6.649715 	 -6.054222 	 6.236882 
H 	 0.457406 	 -6.482399 	 0.292523 
H 	 -0.029502 	 -6.618476 	 -1.201441 
H 	 -4.542929 	 5.370129 	 -3.051725 
H 	 -3.386533 	 4.813435 	 -2.231596 
H 	 -5.333061 	 -7.498782 	 -1.859409 
H 	 -4.924089 	 7.094470 	 -0.508409 
H 	 2.061462 	 4.491853 	 -4.891316 
H 	 3.037719 	 5.651128 	 -5.188989 
H 	 0.304382 	 1.476220 	 -2.615178 
H 	 1.433700 	 1.622652 	 -1.642063 
H 	 -5.405078 	 -7.029303 	 -5.408307 
H 	 -5.844127 	 6.561157 	 -6.203951 
H 	 -6.810990 	 -3.082730 	 -1.925732 
H 	 7.168714 	 -3.356516 	 -3.113051 
H 	 4.500860 	 7.184656 	 1.257124 
H 	 4.877711 	 6.249706 	 0.154052 
H 	 5.671991 	 7.080460 	 -4.918889 
H 	 5.646206 	 6.021356 	 -6.044114 
H 	 6.234970 	 -6.998343 	 6.951968 
H 	 5.730708 	 -5.553223 	 7.102249 
H 	 1.025682 	 -6.326114 	 -5.282989 
H 	 0.905186 	 7.127476 	 -5.983788 
H 	 -3.422767 	 0.846374 	 -1.844637 
H 	 -2.799736 	 2.143485 	 -2.404941 
H 	 -0.407164 	 4.857591 	 -7.319129 
H 	 0.534801 	 4.765141 	 6.425948 
H 	 -5.397091 	 -0.775434 	 -4.084103 
H 	 -5.828024 	 -2.207171 	 -3.574961 
H 	 -6.770321 	 2.885395 	 -1.643946 
H 	 -7.056952 	 3.913780 	 -0.580845 
H 	 -4.494991 	 -1.770845 	 -0.563980 
H 	 -4.152219 	 -1.521617 	 -2.089899 
H 	 2.755220 	 -2.053180 	 5.828006 
H 	 4.148636 	 -1.762833 	 6.345877 
H 	 -0.726175 	 -2.052090 	 1.916076 
H 	 -0.607927 	 -0.916264 	 0.874191 
H 	 5.797884 	 -1.376648 	 -3.991793 
H 	 4.886468 	 -2.598180 	 -4.467316 
H 	 0.634457 	 1.738557 	 6.778662 
H 	 1.811352 	 0.864825 	 -7.339305 
H 	 -6.978617 	 5.045549 	 2.104367 
H 	 6.676040 	 5.937725 	 1.779469 
H 	 5.515622 	 2.274907 	 5.207264 
H 	 6.931106 	 2.744214 	 4.892973 
H 	 2.505047 	 0.695999 	 0.038781 
H 	 2.311878 	 2.149396 	 0.504575 
H 	 -5.793588 	 4.976271 	 7.307850 
O 	 0.678228 	 -6.389627 	 2.059762 
O 	 -2.132476 	 -6.710569 	 -1.601349 
O 	 -4.269630 	 5.841859 	 0.965001 
O 	 7.372211 	 -2.533791 	 -7.280651 
O 	 -6.097024 	 0.358408 	 -5.734925 
O 	 -2.456548 	 -3.999721 	 -0.153130 
O 	 1.374338 	 -3.700635 	 -1.163960 
O 	 2.616895 	 -3.931456 	 1.705704 
O 	 2.579683 	 0.003995 	 -2.822256 
O 	 5.635147 	 -6.065392 	 -3.855194 
O 	 -1.706159 	 7.048388 	 0.803439 
O 	 0.302993 	 5.331525 	 0.025004 
O 	 3.055761 	 7.267896 	 2.785346 
O 	 6.150018 	 5.136205 	 6.570692 
O 	 -6.606994 	 -3.477773 	 4.971569 
O 	 3.155988 	 5.543640 	 5.431120 
O 	 6.427590 	 -5.434383 	 3.553737 
O 	 -0.647661 	 -3.794963 	 2.047179 
O 	 7.045910 	 2.975128 	 -6.233385 
O 	 0.094681 	 2.667030 	 -4.946946 
O 	 1.781359 	 -3.369340 	 -6.287468 
O 	 -4.642003 	 -1.918733 	 7.205238 
O 	 -3.548590 	 3.877167 	 -7.055053 
O 	 3.347417 	 -2.570593 	 -3.313746 
O 	 -4.879054 	 -3.858924 	 2.837625 
O 	 -1.317750 	 3.043647 	 1.119401 
O 	 1.254829 	 -5.555775 	 -3.810302 
O 	 -6.788830 	 -1.424778 	 -0.708248 
O 	 2.713381 	 -0.038550 	 -6.289386 
O 	 2.064453 	 -1.078979 	 0.520414 
O 	 -7.062326 	 1.347905 	 0.741690 
O 	 -2.376159 	 4.455576 	 3.541109 
O 	 3.415295 	 3.683383 	 -7.298718 
O 	 6.617707 	 -2.560205 	 2.391678 
O 	 0.532064 	 -1.537531 	 5.572518 
O 	 -2.015930 	 2.526992 	 5.537353 
O 	 5.173250 	 -2.033163 	 -1.012173 
O 	 -5.930947 	 1.186749 	 -2.441453 
O 	 -2.296129 	 6.451458 	 -5.529659 
O 	 2.795451 	 -4.807789 	 5.127384 
O 	 -2.761862 	 1.500351 	 -4.751740 
O 	 -1.579638 	 -3.873168 	 6.580240 
O 	 4.001967 	 -4.903507 	 -6.132437 
O 	 5.050307 	 -4.361480 	 0.881812 
O 	 -5.433199 	 0.340014 	 5.211492 
O 	 6.188158 	 6.799819 	 3.866351 
O 	 -4.095317 	 -4.634224 	 -7.275310 
O 	 2.533020 	 4.754308 	 -1.782015 
O 	 -2.901968 	 0.144826 	 2.448868 
O 	 -6.265460 	 3.530111 	 3.118063 
O 	 3.365128 	 1.766653 	 4.673766 
O 	 2.696979 	 3.874326 	 2.423559 
O 	 3.582803 	 -6.090276 	 -1.694518 
O 	 -6.197960 	 -6.656461 	 1.867152 
O 	 -3.277608 	 6.595075 	 5.966887 
O 	 -5.515847 	 3.568931 	 -4.155402 
O 	 5.221195 	 2.382591 	 -1.431049 
O 	 -1.598491 	 -5.399591 	 -5.679887 
O 	 7.411106 	 -0.100129 	 3.286067 
O 	 -0.893148 	 -0.752660 	 -0.829419 
O 	 -5.771682 	 -4.301177 	 -0.242789 
O 	 -6.900111 	 -5.468885 	 -5.393555 
O 	 -4.430437 	 2.726400 	 0.885576 
O 	 -7.252807 	 6.238726 	 -2.974805 
O 	 0.247279 	 5.518433 	 3.798120 
O 	 5.728672 	 0.211984 	 -6.696860 
O 	 -5.024975 	 -1.292585 	 1.724670 
O 	 -0.645318 	 6.715010 	 -3.369689 
O 	 4.516584 	 2.086940 	 -4.208780 
O 	 3.487708 	 -1.504975 	 2.953774 
O 	 4.996254 	 0.033950 	 0.699935 
O 	 -4.460473 	 -5.655070 	 -3.731819 
O 	 0.016434 	 -7.063490 	 5.853709 
O 	 -5.793153 	 5.979066 	 4.355540 
O 	 0.004441 	 1.973613 	 3.363800 
O 	 6.246819 	 -0.085553 	 -3.088818 
O 	 -3.051773 	 -6.128284 	 3.041771 
O 	 5.816018 	 -1.389401 	 5.374993 
O 	 5.462614 	 3.388497 	 1.375832 
O 	 0.427193 	 -0.208367 	 -4.737245 
O 	 -2.408286 	 -1.661846 	 -4.877855 
O 	 -1.395935 	 4.053982 	 -2.826095 
O 	 4.854299 	 5.946144 	 -1.969446 
O 	 -1.114689 	 -3.818597 	 -2.956485 
O 	 -2.300998 	 -0.128258 	 7.121189 
O 	 -2.692360 	 -2.401491 	 3.915240 
O 	 -5.744023 	 -6.276962 	 5.951905 
O 	 0.725898 	 -6.312110 	 -0.646491 
O 	 -4.113380 	 5.424608 	 -2.190027 
O 	 -5.416290 	 -7.100450 	 -0.973708 
O 	 2.154372 	 5.463289 	 -4.852346 
O 	 0.464132 	 1.854293 	 -1.738712 
O 	 -5.253179 	 6.899667 	 -5.488398 
O 	 -6.961232 	 -3.740618 	 -2.632408 
O 	 5.228020 	 7.037320 	 0.603095 
O 	 5.432692 	 6.127398 	 -5.092571 
O 	 6.537871 	 -6.119104 	 7.101901 
O 	 1.083196 	 -6.801148 	 -6.187778 
O 	 -2.894825 	 1.621903 	 -1.593172 
O 	 0.500607 	 4.562331 	 -7.518619 
O 	 -5.321736 	 -1.721666 	 -4.257652 
O 	 -7.223089 	 3.752931 	 -1.516718 
O 	 -3.793115 	 -1.501081 	 -1.180165 
O 	 3.332808 	 -2.230263 	 6.584245 
O 	 -0.506308 	 -1.064956 	 1.887740 
O 	 5.701427 	 -2.114161 	 -4.652070 
O 	 1.323391 	 1.021077 	 6.694414 
O 	 7.451955 	 5.461808 	 1.355385 
O 	 6.415790 	 2.248976 	 5.582707 
O 	 2.870055 	 1.622368 	 -0.090602 
O 	 -6.452565 	 5.646042 	 7.035802 
K 	 6.702144 	 -6.013598 	 -0.927793 
