333
conformation = 28
H 	 1.340877 	 -6.647889 	 2.452132 
H 	 0.204511 	 -5.622768 	 2.265246 
H 	 -2.674602 	 -6.450542 	 -0.979626 
H 	 -1.735205 	 -6.967866 	 -1.967227 
H 	 -3.760306 	 5.442916 	 2.207853 
H 	 -3.492158 	 6.316909 	 0.952861 
H 	 -6.251479 	 -2.954135 	 -7.009441 
H 	 7.421783 	 -2.281362 	 -6.281276 
H 	 -6.409987 	 0.793790 	 -6.669735 
H 	 -5.125416 	 -0.106576 	 -6.733741 
H 	 -1.842971 	 -4.405136 	 -0.755409 
H 	 -2.167384 	 -2.977386 	 -0.274887 
H 	 1.147865 	 -3.172660 	 -1.791632 
H 	 1.695032 	 -4.397788 	 -1.084803 
H 	 3.084397 	 -4.289328 	 1.430493 
H 	 2.020002 	 -3.196849 	 1.258158 
H 	 3.109698 	 0.790978 	 -3.450155 
H 	 1.630987 	 0.410122 	 -3.233492 
H 	 5.093376 	 -5.552259 	 -4.366772 
H 	 6.554093 	 -5.790403 	 -4.391492 
H 	 -0.936118 	 6.537677 	 0.747446 
H 	 -1.677673 	 -7.299978 	 1.682773 
H 	 1.230881 	 5.029994 	 1.005366 
H 	 -0.108536 	 4.310352 	 0.550857 
H 	 3.310372 	 -6.567393 	 3.569429 
H 	 3.226690 	 6.769906 	 3.392998 
H 	 7.182227 	 5.666382 	 6.561839 
H 	 6.298703 	 4.431622 	 5.946924 
H 	 -6.426678 	 -3.135983 	 5.755614 
H 	 -6.089532 	 -3.576850 	 4.271659 
H 	 3.497891 	 6.744169 	 5.936887 
H 	 3.129128 	 5.209466 	 5.910614 
H 	 5.735512 	 -6.032488 	 4.133058 
H 	 6.589701 	 -4.743640 	 4.565288 
H 	 -1.304060 	 -3.627598 	 3.000501 
H 	 -1.153034 	 -3.864860 	 1.498304 
H 	 6.767982 	 4.109826 	 -6.645239 
H 	 6.609359 	 2.604789 	 -6.504120 
H 	 -0.171336 	 3.804077 	 -5.382217 
H 	 -0.450652 	 2.325314 	 -5.048756 
H 	 1.883161 	 -3.092532 	 -6.573131 
H 	 1.141938 	 -3.154284 	 -5.229515 
H 	 -3.273643 	 -1.226049 	 6.742999 
H 	 -4.211693 	 -2.473702 	 7.208539 
H 	 -2.951488 	 3.396631 	 7.264654 
H 	 -2.801570 	 4.569699 	 -6.580951 
H 	 3.240675 	 -2.982449 	 -2.745403 
H 	 3.125537 	 -1.539553 	 -3.373317 
H 	 -4.026697 	 -3.622159 	 3.908471 
H 	 -4.578287 	 -3.034566 	 2.673911 
H 	 -2.327932 	 3.257948 	 1.371789 
H 	 -1.850388 	 2.185658 	 0.489118 
H 	 0.358605 	 -4.700490 	 -3.976912 
H 	 1.623861 	 -5.450454 	 -3.367970 
H 	 7.200439 	 -1.598888 	 -1.125757 
H 	 -6.425125 	 -1.344394 	 -0.258430 
H 	 3.631224 	 -0.812404 	 -6.629870 
H 	 4.409084 	 0.573858 	 -6.529411 
H 	 2.203131 	 -1.071919 	 -0.507076 
H 	 1.396011 	 -0.991185 	 0.802522 
H 	 -6.477237 	 2.215825 	 0.534343 
H 	 -7.112149 	 0.933207 	 -0.046134 
H 	 -2.886200 	 5.483752 	 4.462303 
H 	 -1.660190 	 4.979340 	 3.666027 
H 	 3.461871 	 3.950664 	 -6.676942 
H 	 4.737574 	 4.101653 	 -7.460545 
H 	 7.581834 	 -1.754914 	 2.994545 
H 	 -6.944885 	 -3.095524 	 2.304726 
H 	 0.644233 	 -1.098543 	 4.719036 
H 	 1.008747 	 -0.078544 	 5.829710 
H 	 -2.487280 	 3.148244 	 4.986820 
H 	 -1.072216 	 2.340019 	 5.236502 
H 	 4.902364 	 -1.812681 	 -1.572448 
H 	 5.379605 	 -1.718210 	 -0.143724 
H 	 -5.257731 	 2.052923 	 -3.242899 
H 	 -6.529491 	 1.200685 	 -3.389871 
H 	 -1.881841 	 6.171057 	 -4.754898 
H 	 -3.027059 	 6.515728 	 -5.773970 
H 	 3.094645 	 -4.108455 	 5.297673 
H 	 2.553956 	 -4.418905 	 3.863657 
H 	 -2.545356 	 1.013310 	 -5.345367 
H 	 -3.330086 	 2.301085 	 -5.664021 
H 	 -0.396709 	 -2.952192 	 7.100375 
H 	 -1.152933 	 -4.220920 	 -7.405679 
H 	 4.107267 	 -4.056808 	 -7.092516 
H 	 3.455165 	 -5.146373 	 -6.214529 
H 	 5.336137 	 -4.620269 	 2.083340 
H 	 6.025120 	 -3.431600 	 1.544594 
H 	 -6.237322 	 0.615316 	 5.997197 
H 	 -5.181790 	 -0.522875 	 5.832257 
H 	 7.524313 	 6.282394 	 4.030587 
H 	 6.261839 	 5.963053 	 5.008898 
H 	 -4.776546 	 -5.101043 	 6.622950 
H 	 -3.414191 	 -4.639321 	 7.046746 
H 	 2.569831 	 5.118628 	 -1.148358 
H 	 3.411411 	 4.268609 	 -2.077587 
H 	 -2.741352 	 1.242840 	 2.032530 
H 	 -1.670757 	 0.131775 	 1.998107 
H 	 -5.738100 	 4.190630 	 3.780990 
H 	 -5.429533 	 2.965566 	 2.857304 
H 	 3.149948 	 1.807357 	 5.138786 
H 	 3.721154 	 0.944241 	 3.891331 
H 	 3.813874 	 3.841051 	 2.117845 
H 	 2.993036 	 3.293630 	 3.272357 
H 	 3.618478 	 -5.013475 	 -2.002915 
H 	 3.206788 	 -6.299726 	 -1.339366 
H 	 -5.943794 	 -7.152641 	 2.275648 
H 	 -6.895820 	 -6.027510 	 2.680306 
H 	 -2.060020 	 7.050677 	 6.085096 
H 	 -3.350790 	 6.335833 	 6.628605 
H 	 -6.291365 	 3.650027 	 -5.111623 
H 	 -4.782761 	 4.043674 	 -5.183222 
H 	 6.279981 	 3.259838 	 -1.721738 
H 	 5.217824 	 2.773059 	 -0.635186 
H 	 -2.472530 	 -5.585258 	 -5.098825 
H 	 -1.467771 	 -6.128764 	 -6.104382 
H 	 -7.065773 	 0.891649 	 2.509137 
H 	 -6.517706 	 0.509345 	 3.876301 
H 	 -1.734288 	 -0.542656 	 -1.152738 
H 	 -0.391048 	 0.020119 	 -1.538402 
H 	 -4.919114 	 -3.364162 	 0.414203 
H 	 -5.453803 	 -4.690587 	 -0.275708 
H 	 -6.290376 	 -5.337134 	 -5.312098 
H 	 7.449070 	 -5.937479 	 -6.189397 
H 	 -4.157596 	 4.174862 	 0.424025 
H 	 -4.036370 	 2.749388 	 -0.051753 
H 	 -6.998987 	 6.661979 	 -3.889242 
H 	 -7.011057 	 5.209440 	 -3.275734 
H 	 0.874253 	 5.312624 	 3.395707 
H 	 0.934896 	 5.706113 	 4.879213 
H 	 6.062760 	 0.316672 	 6.931319 
H 	 6.195109 	 -0.308005 	 -6.520994 
H 	 -4.051154 	 -0.776018 	 1.591636 
H 	 -5.554378 	 -1.103705 	 1.557366 
H 	 0.266048 	 6.806965 	 -3.784969 
H 	 -0.553771 	 5.896928 	 -2.711457 
H 	 4.694878 	 2.656228 	 -3.585415 
H 	 3.433173 	 2.550640 	 -4.518344 
H 	 3.402415 	 -1.831676 	 2.281441 
H 	 3.949024 	 -2.486434 	 3.504635 
H 	 4.535754 	 0.728810 	 0.410089 
H 	 5.262937 	 -0.137480 	 1.524683 
H 	 -4.710004 	 -5.008883 	 -3.165107 
H 	 -3.281882 	 -5.704803 	 -2.872495 
H 	 0.746243 	 -6.590024 	 6.313126 
H 	 0.212919 	 -6.989160 	 4.891694 
H 	 -5.075833 	 6.883761 	 4.378156 
H 	 -5.828445 	 6.085691 	 5.487412 
H 	 -0.442907 	 2.239587 	 2.827715 
H 	 0.781410 	 2.542727 	 3.640838 
H 	 5.770799 	 0.753850 	 -3.395049 
H 	 6.594156 	 0.096469 	 -2.241449 
H 	 -3.310773 	 -6.723914 	 3.990475 
H 	 -3.692362 	 -5.541846 	 3.160174 
H 	 6.387445 	 -1.998003 	 6.160179 
H 	 6.057794 	 -1.167851 	 4.891846 
H 	 6.537250 	 3.478487 	 1.504300 
H 	 5.905000 	 2.117661 	 1.462401 
H 	 1.664190 	 0.064120 	 -5.501664 
H 	 0.742701 	 -1.141813 	 -5.706517 
H 	 -3.061108 	 -1.922509 	 -4.985234 
H 	 -1.983413 	 -1.300090 	 -5.763979 
H 	 -1.168444 	 3.805273 	 -3.360670 
H 	 -0.830805 	 3.735297 	 -1.874007 
H 	 4.721424 	 6.821191 	 -2.157787 
H 	 6.051423 	 6.185943 	 -2.352624 
H 	 -1.677842 	 -4.035622 	 -3.315414 
H 	 -1.045088 	 -2.763959 	 -3.919078 
H 	 -0.939108 	 -0.489977 	 6.119137 
H 	 -2.044679 	 0.639912 	 6.245154 
H 	 -2.321216 	 -1.185202 	 3.832929 
H 	 -2.489177 	 -2.114708 	 5.043318 
H 	 -5.480285 	 -7.075869 	 6.465146 
H 	 -6.329212 	 -6.190046 	 5.563411 
H 	 0.646233 	 -6.535269 	 0.206101 
H 	 0.815328 	 -6.971181 	 -1.320282 
H 	 -4.729773 	 5.277286 	 -2.872674 
H 	 -3.380678 	 5.536390 	 -2.160184 
H 	 -5.004300 	 -7.206231 	 -1.541989 
H 	 -5.429545 	 -7.092279 	 0.019981 
H 	 2.679738 	 5.222656 	 -3.977763 
H 	 3.760043 	 5.982067 	 -4.909298 
H 	 0.850776 	 2.848136 	 -2.364158 
H 	 0.995327 	 2.254237 	 -0.973519 
H 	 -4.355246 	 -7.129949 	 -4.869154 
H 	 -5.425508 	 -7.357991 	 -5.941994 
H 	 -6.755006 	 -3.036619 	 -2.324590 
H 	 7.331742 	 -3.279213 	 -3.642564 
H 	 4.900792 	 -7.391398 	 1.602508 
H 	 4.923029 	 6.761334 	 0.174653 
H 	 5.436174 	 7.329047 	 -4.983450 
H 	 5.865824 	 6.154182 	 -5.966698 
H 	 6.620373 	 -6.873863 	 6.843758 
H 	 5.744077 	 -5.679643 	 7.253331 
H 	 1.313686 	 -6.535371 	 -5.897108 
H 	 2.101277 	 7.069059 	 -6.145996 
H 	 -3.358846 	 0.811524 	 -1.444044 
H 	 -2.426103 	 1.857592 	 -2.140063 
H 	 0.357359 	 5.705980 	 -7.308060 
H 	 -0.633240 	 4.481228 	 -7.480521 
H 	 -5.256918 	 -0.897533 	 -4.462449 
H 	 -5.659846 	 -2.361307 	 -3.957272 
H 	 -5.920918 	 3.738866 	 -1.264222 
H 	 -6.835061 	 4.695252 	 -0.311054 
H 	 -4.181507 	 -1.764492 	 -1.210847 
H 	 -4.103882 	 -1.220558 	 -2.625998 
H 	 2.566789 	 -1.790362 	 6.224413 
H 	 4.160051 	 -1.974764 	 6.255648 
H 	 -0.353436 	 -1.827167 	 1.980016 
H 	 -0.464758 	 -0.775596 	 0.746307 
H 	 6.073878 	 -1.417238 	 -4.492518 
H 	 5.264335 	 -2.667136 	 -4.718870 
H 	 0.977348 	 1.940085 	 6.735690 
H 	 2.107013 	 1.282163 	 -7.384211 
H 	 -6.872537 	 5.369405 	 2.000884 
H 	 7.052065 	 6.175389 	 1.040559 
H 	 5.814485 	 2.629367 	 4.409061 
H 	 7.351957 	 2.826284 	 4.745082 
H 	 2.304098 	 1.243511 	 0.611178 
H 	 2.525108 	 2.798395 	 1.011924 
H 	 -5.855968 	 5.610419 	 -7.539252 
O 	 0.431196 	 -6.557142 	 2.170315 
O 	 -2.179816 	 -6.113343 	 -1.744916 
O 	 -4.201544 	 5.791681 	 1.380992 
O 	 -7.117897 	 -2.575818 	 -7.144260 
O 	 -5.557747 	 0.619479 	 -6.210874 
O 	 -2.172902 	 -3.927994 	 0.024615 
O 	 1.967095 	 -3.466535 	 -1.327089 
O 	 2.195045 	 -4.015525 	 1.766253 
O 	 2.510776 	 0.278307 	 -2.844972 
O 	 5.759687 	 -6.017536 	 -3.851084 
O 	 -1.782595 	 6.905165 	 1.016997 
O 	 0.507712 	 5.037797 	 0.333433 
O 	 3.391190 	 -7.283056 	 2.891512 
O 	 6.226814 	 5.148008 	 6.641607 
O 	 -6.812966 	 -3.460717 	 4.921599 
O 	 2.926641 	 6.097365 	 5.522553 
O 	 6.349358 	 -5.357982 	 3.799919 
O 	 -0.621584 	 -3.719684 	 2.309269 
O 	 7.209911 	 3.346680 	 -6.179170 
O 	 0.063217 	 3.097853 	 -4.767293 
O 	 1.004029 	 -2.941408 	 -6.189763 
O 	 -4.223651 	 -1.530180 	 6.915533 
O 	 -3.440377 	 4.117059 	 -7.159383 
O 	 3.682031 	 -2.360220 	 -3.346505 
O 	 -4.701612 	 -3.812574 	 3.244910 
O 	 -1.509479 	 2.701559 	 1.256617 
O 	 1.038007 	 -5.436064 	 -4.163997 
O 	 -6.828142 	 -1.089884 	 -1.104586 
O 	 3.560902 	 0.112949 	 -6.248419 
O 	 2.278338 	 -0.765623 	 0.400647 
O 	 -6.535413 	 1.267715 	 0.680676 
O 	 -2.581318 	 4.704087 	 3.906651 
O 	 3.984300 	 3.473087 	 -7.389449 
O 	 7.255494 	 -2.413038 	 2.328511 
O 	 0.653694 	 -0.983916 	 5.690814 
O 	 -1.976777 	 2.515412 	 5.572970 
O 	 5.545748 	 -2.210973 	 -0.963751 
O 	 -5.727996 	 1.283152 	 -2.858615 
O 	 -2.147154 	 6.059580 	 -5.688929 
O 	 3.024972 	 -4.804381 	 4.625717 
O 	 -2.607090 	 1.958757 	 -5.114364 
O 	 -1.157328 	 -3.489235 	 6.861247 
O 	 4.318074 	 -4.703871 	 -6.399979 
O 	 5.472906 	 -4.184001 	 1.213171 
O 	 -5.407038 	 0.405316 	 5.520824 
O 	 6.523985 	 6.289554 	 4.119336 
O 	 -4.344333 	 -4.412232 	 7.219661 
O 	 2.489496 	 4.467711 	 -1.886780 
O 	 -2.645233 	 0.304606 	 1.974638 
O 	 -6.177809 	 3.485301 	 3.253924 
O 	 3.611084 	 1.810877 	 4.268925 
O 	 2.889826 	 3.827602 	 2.462732 
O 	 3.820613 	 -5.984911 	 -2.044635 
O 	 -6.418679 	 -6.409143 	 1.909290 
O 	 -2.836844 	 6.505649 	 5.806040 
O 	 -5.509095 	 3.862719 	 -4.527854 
O 	 5.532949 	 2.624830 	 -1.543070 
O 	 -1.637932 	 -5.359441 	 -5.542479 
O 	 -7.183043 	 0.209142 	 3.214940 
O 	 -0.767689 	 -0.775504 	 -1.102344 
O 	 -5.708855 	 -3.817402 	 0.071348 
O 	 -6.992729 	 -6.014858 	 -5.322130 
O 	 -4.292125 	 3.253832 	 0.756932 
O 	 7.641666 	 6.144855 	 -3.102463 
O 	 0.332651 	 5.374913 	 4.191013 
O 	 6.245891 	 0.539427 	 -7.015220 
O 	 -4.690469 	 -1.518794 	 1.392386 
O 	 -0.391481 	 6.806757 	 -3.037911 
O 	 4.254879 	 2.119800 	 -4.258287 
O 	 3.954660 	 -1.605377 	 3.057187 
O 	 5.414705 	 0.333598 	 0.695887 
O 	 -4.021145 	 -5.576893 	 -3.545496 
O 	 0.080622 	 -7.107431 	 5.838285 
O 	 -5.508700 	 6.004420 	 4.477673 
O 	 0.066966 	 1.874654 	 3.574626 
O 	 6.544894 	 0.204526 	 -3.219884 
O 	 -3.023098 	 -6.238126 	 3.188440 
O 	 5.804948 	 -1.309469 	 5.826186 
O 	 5.668841 	 3.067334 	 1.604204 
O 	 0.733811 	 -0.227973 	 -5.467198 
O 	 -2.179264 	 -1.531192 	 -4.852038 
O 	 -1.454246 	 4.171898 	 -2.503087 
O 	 5.221050 	 6.054421 	 -1.849054 
O 	 -0.885715 	 -3.457600 	 -3.206888 
O 	 -1.710054 	 -0.184358 	 6.643220 
O 	 -2.291950 	 -2.129248 	 4.096051 
O 	 -5.360939 	 -6.406806 	 5.709054 
O 	 1.210492 	 -6.447048 	 -0.609130 
O 	 -4.335892 	 5.774655 	 -2.099247 
O 	 -5.119982 	 -6.606957 	 -0.769652 
O 	 2.846082 	 5.540789 	 -4.884709 
O 	 0.352403 	 2.351895 	 -1.704033 
O 	 -4.557200 	 7.133487 	 -5.599445 
O 	 -6.793040 	 -3.604879 	 -3.147634 
O 	 5.377647 	 7.390201 	 0.764449 
O 	 5.129608 	 6.597373 	 -5.545760 
O 	 6.645081 	 -5.890193 	 6.942869 
O 	 1.882599 	 -6.987557 	 -6.590481 
O 	 -2.711435 	 1.542074 	 -1.276450 
O 	 0.153678 	 4.789406 	 -7.018808 
O 	 -4.906293 	 -1.704599 	 -3.996596 
O 	 -6.835234 	 4.053426 	 -1.075052 
O 	 -3.610860 	 -1.210262 	 -1.750562 
O 	 3.328095 	 -2.168455 	 6.737720 
O 	 -0.142123 	 -0.884970 	 1.697406 
O 	 6.092328 	 -2.224855 	 -5.054999 
O 	 1.739865 	 1.353131 	 6.611915 
O 	 -7.194823 	 5.464553 	 1.081627 
O 	 6.480810 	 2.574805 	 5.129137 
O 	 2.496431 	 2.154470 	 0.263244 
O 	 -6.397067 	 6.388512 	 7.005207 
K 	 6.747918 	 -5.624403 	 -0.931105 
