333
conformation = 19
H 	 1.306369 	 -6.847436 	 2.624498 
H 	 0.603565 	 -5.574837 	 2.320426 
H 	 -2.410225 	 -7.074341 	 -0.848880 
H 	 -1.582494 	 -7.115464 	 -2.191978 
H 	 -4.525277 	 6.388780 	 1.950414 
H 	 -3.356020 	 6.060956 	 1.045290 
H 	 -6.671329 	 -3.007124 	 -6.747056 
H 	 6.723661 	 -3.040782 	 -6.690249 
H 	 -6.873903 	 0.671788 	 -5.671664 
H 	 -5.974771 	 -0.537109 	 -6.137983 
H 	 -2.338567 	 -4.877149 	 -0.432849 
H 	 -2.576596 	 -3.412109 	 -0.756346 
H 	 0.797589 	 -3.242606 	 -1.210504 
H 	 1.093556 	 -4.748786 	 -1.104164 
H 	 3.420603 	 -4.139738 	 1.587038 
H 	 2.139956 	 -3.804138 	 0.902779 
H 	 2.841887 	 0.773764 	 -3.364227 
H 	 1.631196 	 -0.052442 	 -3.096135 
H 	 4.981375 	 -5.600888 	 -4.291553 
H 	 6.417855 	 -6.031478 	 -4.388972 
H 	 -0.979999 	 6.445692 	 0.868413 
H 	 -1.644945 	 -7.435028 	 1.817605 
H 	 1.289923 	 5.160712 	 -0.200810 
H 	 0.430767 	 4.397449 	 0.770986 
H 	 3.650802 	 -6.920204 	 3.235823 
H 	 3.008301 	 6.554829 	 3.561427 
H 	 7.148518 	 5.325255 	 6.878786 
H 	 6.073846 	 4.157534 	 6.188852 
H 	 -6.724253 	 -3.060951 	 5.835333 
H 	 -5.765088 	 -3.523186 	 4.575366 
H 	 3.351910 	 6.323945 	 6.222480 
H 	 3.186789 	 4.816760 	 5.904396 
H 	 6.445969 	 -6.295563 	 4.155452 
H 	 6.989889 	 -4.884603 	 4.290607 
H 	 -1.403154 	 -3.768761 	 2.986269 
H 	 -1.350853 	 -3.849868 	 1.432381 
H 	 6.777594 	 3.763648 	 -6.886491 
H 	 6.711747 	 2.325335 	 -6.633136 
H 	 0.416000 	 3.200564 	 -5.550547 
H 	 -0.574936 	 2.034367 	 -5.182358 
H 	 1.877369 	 -3.082577 	 -7.067946 
H 	 0.850804 	 -3.990951 	 -6.305734 
H 	 -3.604653 	 -1.746762 	 7.071989 
H 	 -4.516618 	 -2.837437 	 -7.345933 
H 	 -3.179742 	 3.172231 	 7.377646 
H 	 -2.807129 	 4.381084 	 -6.617753 
H 	 2.488997 	 -3.063038 	 -3.332372 
H 	 2.999338 	 -1.635881 	 -3.097263 
H 	 -3.901995 	 -3.940987 	 3.091495 
H 	 -5.043889 	 -3.091702 	 2.599396 
H 	 -2.539899 	 2.995526 	 1.526852 
H 	 -1.650650 	 2.727659 	 0.309520 
H 	 0.229563 	 -5.123226 	 -3.480905 
H 	 1.616655 	 -5.780058 	 -3.028949 
H 	 7.097529 	 -1.653698 	 -0.918276 
H 	 -6.533221 	 -1.843771 	 -0.027825 
H 	 3.368490 	 -0.757853 	 -6.688116 
H 	 3.822053 	 0.543883 	 -6.057612 
H 	 1.383244 	 -1.339238 	 -0.056078 
H 	 1.487330 	 -0.862020 	 1.375633 
H 	 -6.082118 	 1.540584 	 1.018783 
H 	 -6.933025 	 0.392146 	 0.386287 
H 	 -2.880296 	 5.270656 	 4.174553 
H 	 -1.478088 	 4.790404 	 3.858188 
H 	 2.866195 	 4.054510 	 -6.782712 
H 	 4.329429 	 4.087645 	 -7.079802 
H 	 6.839995 	 -1.673737 	 2.468974 
H 	 6.860347 	 -2.784927 	 3.479799 
H 	 0.566448 	 -1.055773 	 4.847404 
H 	 0.674738 	 -0.589786 	 6.307276 
H 	 -2.460043 	 3.187406 	 5.033996 
H 	 -1.384230 	 2.266766 	 5.000170 
H 	 4.913609 	 -2.509421 	 -1.594687 
H 	 4.788021 	 -1.316663 	 -0.633077 
H 	 -6.129457 	 1.721042 	 -3.429267 
H 	 -6.773316 	 0.627243 	 -2.465487 
H 	 -1.719434 	 6.355291 	 -4.667618 
H 	 -3.135064 	 6.639607 	 -5.195680 
H 	 3.248493 	 -4.258537 	 5.705490 
H 	 2.453741 	 -4.239480 	 4.414514 
H 	 -2.936237 	 0.714272 	 -4.644657 
H 	 -3.195718 	 1.913329 	 -5.632389 
H 	 -0.950430 	 -3.365040 	 6.287908 
H 	 -1.150410 	 -3.997651 	 -7.317603 
H 	 3.452196 	 -4.185168 	 -5.850823 
H 	 3.484381 	 -5.414862 	 -6.660508 
H 	 5.367925 	 -4.414948 	 1.966782 
H 	 5.434192 	 -3.397455 	 0.776874 
H 	 -5.669538 	 1.174082 	 5.828056 
H 	 -5.375604 	 -0.336913 	 6.148508 
H 	 7.159324 	 6.210477 	 4.223564 
H 	 5.785453 	 6.004219 	 4.785893 
H 	 -4.525374 	 -5.136769 	 6.778439 
H 	 -3.244863 	 -4.629571 	 -7.454443 
H 	 2.249668 	 5.411487 	 -2.080441 
H 	 3.384162 	 4.694821 	 -1.587497 
H 	 -2.603981 	 0.929864 	 1.823710 
H 	 -2.042809 	 -0.311374 	 2.519728 
H 	 -5.807140 	 4.015013 	 3.878614 
H 	 -5.560075 	 3.037423 	 2.742431 
H 	 2.585629 	 1.813894 	 5.150746 
H 	 3.110526 	 1.027790 	 4.024267 
H 	 3.681111 	 3.750603 	 2.285449 
H 	 2.743819 	 3.269568 	 3.396895 
H 	 3.565545 	 -5.168647 	 -1.922940 
H 	 2.852070 	 -6.244066 	 -1.171553 
H 	 -6.786490 	 -7.371375 	 1.536590 
H 	 -7.026433 	 -6.210609 	 2.565797 
H 	 -2.441373 	 6.953079 	 6.138730 
H 	 -3.477064 	 5.921386 	 6.754041 
H 	 -6.310465 	 3.876600 	 -4.742467 
H 	 -4.871864 	 3.558184 	 -4.853776 
H 	 6.130316 	 2.967519 	 -1.350718 
H 	 4.884994 	 2.708396 	 -0.539447 
H 	 -2.467217 	 -4.927881 	 -5.504965 
H 	 -1.858642 	 -6.347482 	 -5.459250 
H 	 -7.312263 	 0.747913 	 2.708030 
H 	 -6.719299 	 0.043270 	 3.968838 
H 	 -1.725084 	 -1.235642 	 -1.119367 
H 	 -1.088352 	 0.179605 	 -1.081001 
H 	 -5.824317 	 -3.846620 	 0.851497 
H 	 -5.552771 	 -5.066744 	 -0.051251 
H 	 -6.580315 	 -5.084314 	 -4.990057 
H 	 -7.256813 	 -5.718884 	 -6.304123 
H 	 -4.280359 	 3.794483 	 0.967252 
H 	 -4.117717 	 2.546641 	 0.126154 
H 	 7.484086 	 6.137124 	 -3.936757 
H 	 -7.029962 	 5.273833 	 -2.644955 
H 	 1.025230 	 5.083494 	 4.097168 
H 	 0.004237 	 6.289267 	 4.455136 
H 	 5.767138 	 -0.009730 	 7.172410 
H 	 5.913154 	 -0.650653 	 -6.398759 
H 	 -4.002039 	 -1.027865 	 1.753646 
H 	 -5.327961 	 -0.825103 	 2.321152 
H 	 0.152314 	 7.032046 	 -3.495087 
H 	 -0.677888 	 5.713360 	 -2.930831 
H 	 4.611920 	 2.595525 	 -3.448378 
H 	 4.746261 	 2.182027 	 -4.964421 
H 	 2.910227 	 -2.215339 	 2.581253 
H 	 4.437064 	 -1.961045 	 2.762241 
H 	 4.801530 	 0.919354 	 0.177743 
H 	 4.261014 	 -0.180014 	 1.177419 
H 	 -4.743673 	 -5.009339 	 -3.133011 
H 	 -3.862959 	 -6.199894 	 -2.811536 
H 	 0.473841 	 -7.222223 	 6.800291 
H 	 0.359587 	 -6.354335 	 5.508197 
H 	 -5.006849 	 6.633888 	 4.387033 
H 	 -5.809440 	 5.992738 	 5.447366 
H 	 -0.411561 	 1.675001 	 2.584200 
H 	 -0.195521 	 2.852138 	 3.419919 
H 	 5.789966 	 0.728378 	 -3.366111 
H 	 5.886927 	 -0.140869 	 -2.113242 
H 	 -3.265793 	 -6.016007 	 4.129150 
H 	 -4.001439 	 -6.347715 	 2.867318 
H 	 6.454458 	 -1.700923 	 6.083635 
H 	 5.981309 	 -1.052080 	 4.850084 
H 	 6.052332 	 3.948978 	 1.316984 
H 	 5.951771 	 2.397451 	 1.480061 
H 	 1.339660 	 -0.150520 	 -5.396263 
H 	 0.345137 	 -1.188675 	 -4.909171 
H 	 -3.345684 	 -1.874096 	 -4.697629 
H 	 -2.258744 	 -1.587917 	 -5.680490 
H 	 -1.194351 	 3.574872 	 -3.492476 
H 	 -0.756744 	 3.748058 	 -2.050268 
H 	 4.690448 	 6.630183 	 -2.403068 
H 	 5.900140 	 5.747095 	 -2.166894 
H 	 -1.890461 	 -4.286173 	 -3.186512 
H 	 -1.101666 	 -3.113217 	 -3.752169 
H 	 -1.318474 	 -0.351582 	 6.358438 
H 	 -2.281389 	 0.755636 	 6.800508 
H 	 -3.122409 	 -1.643060 	 3.615560 
H 	 -2.126927 	 -1.941864 	 4.659619 
H 	 -5.973084 	 -7.143376 	 6.604509 
H 	 -6.479784 	 -5.857509 	 5.848371 
H 	 1.057437 	 -6.327580 	 0.376239 
H 	 -0.000281 	 -6.505018 	 -0.694848 
H 	 -4.735625 	 5.299348 	 -2.919951 
H 	 -3.478464 	 5.036702 	 -2.093630 
H 	 -5.575367 	 -7.315562 	 -1.645910 
H 	 -4.809329 	 7.201123 	 -0.440936 
H 	 2.253405 	 4.754204 	 -4.218742 
H 	 3.167822 	 5.940319 	 -4.616602 
H 	 0.584928 	 1.729159 	 -2.580619 
H 	 1.336585 	 2.049798 	 -1.285635 
H 	 -5.872573 	 -7.158969 	 -5.038006 
H 	 -5.531012 	 6.666587 	 -6.162569 
H 	 -6.721746 	 -3.342229 	 -1.740441 
H 	 7.185596 	 -3.161943 	 -2.913683 
H 	 4.362902 	 7.171706 	 1.173421 
H 	 5.001307 	 6.780315 	 -0.205498 
H 	 5.159448 	 7.215676 	 -4.884637 
H 	 5.676945 	 6.242505 	 -5.992733 
H 	 6.325063 	 -6.989707 	 6.852067 
H 	 5.675298 	 -5.637227 	 7.348969 
H 	 1.073596 	 -6.370159 	 -5.471001 
H 	 1.896767 	 7.290546 	 -5.938412 
H 	 -3.544788 	 0.881526 	 -1.599062 
H 	 -2.696809 	 2.090197 	 -2.074820 
H 	 -0.046756 	 5.258252 	 -6.649836 
H 	 0.048895 	 4.867105 	 6.741125 
H 	 -5.633858 	 -0.798299 	 -4.139799 
H 	 -5.964315 	 -2.279094 	 -3.774256 
H 	 -6.651886 	 2.968155 	 -1.145862 
H 	 -7.089788 	 4.327992 	 -0.454339 
H 	 -4.298873 	 -0.981329 	 -0.586407 
H 	 -4.479582 	 -1.580908 	 -1.993886 
H 	 2.848339 	 -1.892650 	 6.000287 
H 	 4.233714 	 -2.385003 	 6.342831 
H 	 -0.394810 	 -2.012955 	 2.034953 
H 	 -0.685503 	 -1.082121 	 0.911250 
H 	 6.203281 	 -1.426602 	 -4.336451 
H 	 4.882999 	 -2.328846 	 -4.384650 
H 	 0.865140 	 1.611840 	 7.353364 
H 	 2.108581 	 0.757345 	 7.374209 
H 	 -6.860264 	 4.949812 	 2.037197 
H 	 6.816715 	 5.882759 	 1.844306 
H 	 5.514848 	 2.042161 	 5.622518 
H 	 6.645173 	 2.335209 	 4.570769 
H 	 2.372576 	 0.818565 	 0.296093 
H 	 2.612412 	 2.230084 	 0.899621 
H 	 -6.088526 	 4.938729 	 7.192048 
O 	 0.534391 	 -6.514454 	 2.147142 
O 	 -2.261944 	 -6.594119 	 -1.664235 
O 	 -4.295326 	 5.760437 	 1.212966 
O 	 7.461097 	 -2.552281 	 -7.113708 
O 	 -5.955204 	 0.360226 	 -5.728327 
O 	 -2.426611 	 -4.020520 	 0.019156 
O 	 1.547733 	 -3.860540 	 -1.140149 
O 	 2.485704 	 -4.027663 	 1.787873 
O 	 2.515459 	 0.110822 	 -2.725125 
O 	 5.626213 	 -6.097549 	 -3.788541 
O 	 -1.807495 	 6.976701 	 0.984935 
O 	 0.363078 	 5.164346 	 0.179132 
O 	 3.003060 	 7.319348 	 2.923350 
O 	 6.087809 	 5.043460 	 6.625106 
O 	 -6.709072 	 -3.513759 	 4.963387 
O 	 3.005777 	 5.722651 	 5.566219 
O 	 6.311876 	 -5.411591 	 3.772951 
O 	 -0.770327 	 -3.804444 	 2.260627 
O 	 7.091302 	 3.134081 	 -6.186025 
O 	 -0.056691 	 2.776393 	 -4.823477 
O 	 1.482905 	 -3.243216 	 -6.189499 
O 	 -4.578688 	 -1.918319 	 7.177347 
O 	 -3.560222 	 3.940533 	 -7.040895 
O 	 3.300953 	 -2.552465 	 -3.211980 
O 	 -4.867255 	 -3.934464 	 3.097841 
O 	 -1.613549 	 2.879224 	 1.258837 
O 	 1.085830 	 -5.520972 	 -3.815483 
O 	 -6.849458 	 -1.440367 	 -0.845195 
O 	 3.004829 	 0.007952 	 -6.173596 
O 	 2.030187 	 -1.117985 	 0.611282 
O 	 -6.983392 	 1.282195 	 0.812833 
O 	 -2.412236 	 4.518770 	 3.838884 
O 	 3.561639 	 3.524137 	 -7.254771 
O 	 6.818872 	 -2.658397 	 2.502352 
O 	 0.456966 	 -1.385337 	 5.763542 
O 	 -2.082525 	 2.520306 	 5.670367 
O 	 5.301621 	 -2.108399 	 -0.826561 
O 	 -6.000488 	 1.199262 	 -2.607036 
O 	 -2.276661 	 6.221139 	 -5.453803 
O 	 2.864606 	 -4.857523 	 5.042923 
O 	 -2.763873 	 1.649878 	 -4.818631 
O 	 -1.623367 	 -3.866497 	 6.751811 
O 	 4.079336 	 -4.863219 	 -6.127845 
O 	 4.997911 	 -4.225322 	 1.081553 
O 	 -5.494106 	 0.300995 	 5.430877 
O 	 6.245520 	 6.549184 	 4.100817 
O 	 -4.209860 	 -4.549563 	 -7.387214 
O 	 2.425188 	 4.546285 	 -1.658971 
O 	 -2.897771 	 0.162875 	 2.332524 
O 	 -6.294817 	 3.499510 	 3.219305 
O 	 3.365735 	 1.774902 	 4.561413 
O 	 2.726083 	 3.783302 	 2.540110 
O 	 3.641764 	 -6.122279 	 -1.710828 
O 	 -6.340071 	 -6.645285 	 1.997867 
O 	 -3.268316 	 6.458826 	 5.958126 
O 	 -5.598543 	 3.546918 	 -4.161402 
O 	 5.342297 	 2.382596 	 -1.332723 
O 	 -1.623917 	 -5.406722 	 -5.512393 
O 	 7.453510 	 -0.024774 	 3.304284 
O 	 -0.958450 	 -0.735289 	 -0.765820 
O 	 -5.781629 	 -4.114430 	 -0.086877 
O 	 -7.010104 	 -5.877237 	 -5.368351 
O 	 -4.376802 	 2.830348 	 1.034638 
O 	 -7.375761 	 6.141929 	 -2.952806 
O 	 0.118508 	 5.409191 	 4.012700 
O 	 5.656335 	 0.230142 	 -6.778391 
O 	 -4.896121 	 -1.456482 	 1.713195 
O 	 -0.707837 	 6.686925 	 -3.126735 
O 	 4.297477 	 1.964970 	 -4.130202 
O 	 3.550583 	 -1.604696 	 3.042169 
O 	 5.066649 	 0.147486 	 0.752340 
O 	 -4.344508 	 -5.795721 	 -3.572582 
O 	 -0.004573 	 -7.130160 	 5.954701 
O 	 -5.718377 	 5.969751 	 4.420030 
O 	 -0.071403 	 1.877635 	 3.459103 
O 	 6.272243 	 -0.042491 	 -3.018655 
O 	 -3.094555 	 -6.167832 	 3.175001 
O 	 5.617746 	 -1.440675 	 5.683448 
O 	 5.461353 	 3.231147 	 1.586554 
O 	 0.474638 	 -0.265309 	 -4.981841 
O 	 -2.382578 	 -1.725976 	 -4.745255 
O 	 -1.494013 	 4.047327 	 -2.665871 
O 	 4.971219 	 5.905877 	 -1.823371 
O 	 -1.056592 	 -3.796955 	 -3.030766 
O 	 -2.056382 	 -0.161246 	 6.993718 
O 	 -2.599613 	 -2.400451 	 3.941311 
O 	 -5.671403 	 -6.422363 	 5.976679 
O 	 0.917795 	 -6.213833 	 -0.607748 
O 	 -4.324400 	 5.533006 	 -2.050048 
O 	 -5.329483 	 -6.933771 	 -0.775968 
O 	 2.306416 	 5.506303 	 -4.839942 
O 	 0.405798 	 1.928283 	 -1.642618 
O 	 -5.179072 	 7.135961 	 -5.375519 
O 	 -6.937904 	 -3.676308 	 -2.654036 
O 	 5.211126 	 7.173156 	 0.680180 
O 	 5.289163 	 6.264662 	 -5.108298 
O 	 6.569275 	 -6.093253 	 7.196836 
O 	 1.250280 	 -6.938279 	 -6.213238 
O 	 -2.785762 	 1.435365 	 -1.374335 
O 	 0.290351 	 4.564647 	 -7.268648 
O 	 -5.284612 	 -1.707256 	 -4.143075 
O 	 -7.195831 	 3.793295 	 -1.261495 
O 	 -3.867869 	 -1.487775 	 -1.271708 
O 	 3.339225 	 -2.240244 	 6.775415 
O 	 -0.453536 	 -1.049607 	 1.854335 
O 	 5.777591 	 -2.206903 	 -4.749530 
O 	 1.388885 	 1.045809 	 6.765859 
O 	 -7.375834 	 5.427030 	 1.341739 
O 	 6.431427 	 2.326529 	 5.521958 
O 	 2.696831 	 1.703995 	 0.105035 
O 	 -6.449450 	 5.874932 	 7.223138 
K 	 6.634643 	 -5.948518 	 -0.823439 
