333
conformation = 32
H 	 1.235169 	 -7.006119 	 2.484989 
H 	 0.299072 	 -5.789212 	 2.415579 
H 	 -2.293373 	 -6.571349 	 -0.561573 
H 	 -1.320116 	 -6.633156 	 -1.611521 
H 	 -3.752098 	 5.434703 	 2.611165 
H 	 -3.612096 	 6.180028 	 1.246875 
H 	 -6.163682 	 -3.057430 	 -6.581294 
H 	 7.203516 	 -2.938381 	 -6.257347 
H 	 -6.407802 	 0.620113 	 -5.996613 
H 	 -5.337613 	 -0.105821 	 -6.895064 
H 	 -1.775677 	 -4.467917 	 -0.489188 
H 	 -2.288259 	 -3.089461 	 -0.096469 
H 	 1.153604 	 -3.244929 	 -1.687834 
H 	 1.671717 	 -4.396319 	 -0.832671 
H 	 2.994274 	 -4.102857 	 1.629056 
H 	 1.693658 	 -3.297665 	 1.892963 
H 	 3.032007 	 0.813835 	 -2.829707 
H 	 1.660643 	 0.253045 	 -3.219367 
H 	 5.100760 	 -5.502625 	 -3.893087 
H 	 6.461040 	 -5.985013 	 -4.144828 
H 	 -1.042769 	 6.137281 	 1.183748 
H 	 -1.832108 	 7.269955 	 2.018296 
H 	 0.948930 	 4.443823 	 1.474617 
H 	 -0.338375 	 4.210336 	 0.634319 
H 	 3.708258 	 -6.660982 	 3.823049 
H 	 3.419874 	 6.702266 	 3.659073 
H 	 7.156958 	 5.570204 	 6.969185 
H 	 6.642299 	 4.184726 	 6.544524 
H 	 -6.569449 	 -3.661398 	 6.144347 
H 	 -6.303163 	 -3.506572 	 4.621848 
H 	 3.065034 	 6.799229 	 6.264802 
H 	 3.223437 	 5.225596 	 6.236730 
H 	 6.132082 	 -6.476703 	 4.398720 
H 	 6.699350 	 -5.051826 	 4.786359 
H 	 -1.229745 	 -3.860020 	 3.307284 
H 	 -1.190420 	 -4.041248 	 1.800144 
H 	 6.849354 	 3.680602 	 -6.638947 
H 	 6.941596 	 2.266357 	 -6.121592 
H 	 0.637118 	 3.612289 	 -5.002155 
H 	 -0.491657 	 2.526953 	 -4.963802 
H 	 1.751165 	 -3.039424 	 -5.884557 
H 	 0.493351 	 -3.295406 	 -4.976113 
H 	 -3.237344 	 -0.987062 	 7.056264 
H 	 -3.963390 	 -2.307338 	 -7.268158 
H 	 -2.888090 	 3.383954 	 -7.321624 
H 	 -3.054135 	 4.549636 	 -6.318208 
H 	 3.381569 	 -2.731870 	 -2.356890 
H 	 3.368968 	 -1.626479 	 -3.414114 
H 	 -4.016712 	 -3.277246 	 4.111564 
H 	 -4.564718 	 -3.430001 	 2.747477 
H 	 -2.336670 	 2.820438 	 1.480137 
H 	 -1.475952 	 1.812862 	 0.901041 
H 	 0.120627 	 -5.646712 	 -3.620104 
H 	 1.641706 	 -5.320848 	 -3.435929 
H 	 7.076671 	 -1.555226 	 -0.917150 
H 	 -6.511878 	 -1.422680 	 -0.074876 
H 	 3.482768 	 -0.706450 	 -6.735636 
H 	 4.134283 	 0.733032 	 -6.315589 
H 	 2.204213 	 -1.360351 	 -0.169308 
H 	 1.627092 	 -0.811994 	 1.113538 
H 	 -6.582706 	 2.056818 	 0.585194 
H 	 -6.855308 	 0.581213 	 0.186730 
H 	 -3.119824 	 4.688497 	 4.901133 
H 	 -1.849059 	 4.838373 	 4.139308 
H 	 3.598637 	 3.672093 	 -6.352125 
H 	 4.826732 	 3.871075 	 -7.179639 
H 	 7.529306 	 -1.767769 	 3.071535 
H 	 -6.637791 	 -2.835509 	 2.243574 
H 	 0.751872 	 -0.979187 	 4.830483 
H 	 1.057001 	 -0.169136 	 6.070343 
H 	 -2.884078 	 2.496892 	 5.435392 
H 	 -1.216495 	 2.468338 	 5.113027 
H 	 5.278449 	 -2.053534 	 -1.642756 
H 	 5.151990 	 -1.846677 	 -0.162365 
H 	 -5.436601 	 1.942569 	 -3.289038 
H 	 -6.442135 	 0.833788 	 -2.970114 
H 	 -1.544072 	 5.846912 	 -4.738908 
H 	 -2.938455 	 6.378893 	 -5.285584 
H 	 2.937993 	 -4.416511 	 5.501488 
H 	 2.604248 	 -4.395240 	 3.963486 
H 	 -2.694967 	 0.850389 	 -4.915417 
H 	 -3.402453 	 2.112702 	 -5.461793 
H 	 -0.279535 	 -3.140092 	 7.548691 
H 	 -1.453337 	 -4.038066 	 -7.080515 
H 	 4.166873 	 -4.275991 	 -7.045476 
H 	 3.882438 	 -5.709382 	 -6.461725 
H 	 5.914837 	 -5.024755 	 2.262662 
H 	 5.929553 	 -3.599184 	 1.832645 
H 	 -6.280878 	 0.692040 	 6.158994 
H 	 -5.273096 	 -0.536259 	 6.219858 
H 	 7.481037 	 5.918878 	 4.242442 
H 	 6.156098 	 5.923648 	 5.140228 
H 	 -4.462357 	 -5.124911 	 6.623898 
H 	 -3.699360 	 -4.912211 	 -7.041901 
H 	 1.952753 	 4.141444 	 -1.029964 
H 	 3.425814 	 4.209350 	 -1.483035 
H 	 -3.073536 	 0.809990 	 2.772038 
H 	 -1.783061 	 -0.110841 	 2.368018 
H 	 -5.674702 	 4.078019 	 3.812878 
H 	 -5.741381 	 2.912543 	 2.807355 
H 	 3.408615 	 1.416254 	 5.379462 
H 	 3.726578 	 0.780783 	 3.951488 
H 	 3.829346 	 3.819992 	 2.440993 
H 	 2.885624 	 3.103119 	 3.398887 
H 	 3.609504 	 -5.135267 	 -1.950743 
H 	 2.979341 	 -6.303726 	 -1.249637 
H 	 -5.929172 	 -7.109195 	 2.631222 
H 	 -7.160010 	 -6.206722 	 2.836607 
H 	 -1.820321 	 6.876119 	 6.379678 
H 	 -3.181182 	 6.439573 	 6.973155 
H 	 -6.394731 	 3.566476 	 -4.805651 
H 	 -4.982472 	 3.923980 	 -5.247482 
H 	 6.118467 	 3.315762 	 -1.489835 
H 	 5.273619 	 2.460121 	 -0.481298 
H 	 -2.650561 	 -5.749021 	 -5.008904 
H 	 -1.449164 	 -6.514970 	 -5.618319 
H 	 -6.851312 	 0.396407 	 2.566222 
H 	 -6.336975 	 0.097403 	 3.984707 
H 	 -1.606530 	 -1.133490 	 -1.352688 
H 	 -0.334835 	 -0.261144 	 -1.496337 
H 	 -4.907708 	 -3.525938 	 0.628625 
H 	 -5.596214 	 -4.848599 	 0.082231 
H 	 -6.168276 	 -5.591748 	 -4.900763 
H 	 -7.085921 	 -6.002791 	 -6.102649 
H 	 -4.232581 	 4.114892 	 0.756485 
H 	 -3.886631 	 2.832472 	 -0.018089 
H 	 -6.954329 	 6.546933 	 -3.755648 
H 	 -6.943108 	 5.096687 	 -3.147510 
H 	 1.008328 	 5.035663 	 3.693506 
H 	 0.927495 	 5.623331 	 5.135829 
H 	 6.589207 	 0.209592 	 7.168906 
H 	 6.392997 	 -0.199586 	 -6.235243 
H 	 -3.856940 	 -1.205753 	 1.633886 
H 	 -5.296000 	 -1.015574 	 1.945460 
H 	 0.446091 	 6.626295 	 -3.293447 
H 	 -0.681507 	 5.787223 	 -2.460010 
H 	 4.690572 	 2.737270 	 -3.524121 
H 	 3.351135 	 2.553925 	 -4.315115 
H 	 3.605006 	 -1.683559 	 2.475372 
H 	 3.947267 	 -2.693849 	 3.542566 
H 	 4.455244 	 0.078797 	 0.846493 
H 	 5.710550 	 -0.396718 	 1.758895 
H 	 -4.955945 	 -5.285883 	 -3.274240 
H 	 -3.756102 	 -6.075678 	 -2.589961 
H 	 0.740359 	 -6.892850 	 6.387516 
H 	 -0.082660 	 -7.104393 	 5.049964 
H 	 -4.958083 	 6.501578 	 4.633592 
H 	 -5.773548 	 5.829885 	 5.737352 
H 	 -0.188618 	 2.007564 	 3.086067 
H 	 0.987898 	 2.000967 	 4.035872 
H 	 5.877792 	 0.756479 	 -3.154600 
H 	 7.025478 	 0.134051 	 -2.344532 
H 	 -3.367149 	 -7.156827 	 4.078888 
H 	 -3.711725 	 -5.805099 	 3.559011 
H 	 6.613037 	 -1.931871 	 6.417221 
H 	 6.123023 	 -1.088015 	 5.184254 
H 	 6.462652 	 3.377940 	 1.894182 
H 	 6.003238 	 1.944468 	 1.661017 
H 	 1.651228 	 0.013093 	 -5.447305 
H 	 0.726216 	 -1.137930 	 -5.838372 
H 	 -3.060479 	 -1.868401 	 -4.664611 
H 	 -2.046358 	 -1.557880 	 -5.684264 
H 	 -1.381754 	 3.741213 	 -3.037221 
H 	 -1.118324 	 3.479832 	 -1.593498 
H 	 4.516432 	 6.499712 	 -2.135358 
H 	 5.939760 	 6.040991 	 -2.069566 
H 	 -1.423528 	 -4.267043 	 -3.031587 
H 	 -1.368118 	 -2.773083 	 -3.490441 
H 	 -0.963682 	 -0.712658 	 6.650918 
H 	 -1.904040 	 0.525917 	 6.599575 
H 	 -2.382025 	 -1.277097 	 4.137593 
H 	 -1.838944 	 -2.125339 	 5.344700 
H 	 -5.804190 	 -7.274373 	 6.480424 
H 	 -6.088892 	 -6.363405 	 5.212263 
H 	 0.745579 	 -6.923142 	 0.450320 
H 	 0.945714 	 -7.518370 	 -1.000081 
H 	 -4.714809 	 5.447089 	 -2.748923 
H 	 -3.611063 	 4.968271 	 -1.852372 
H 	 -5.321786 	 -7.566777 	 -0.916227 
H 	 -5.095793 	 -6.773692 	 0.435728 
H 	 2.764135 	 5.252992 	 -3.650052 
H 	 3.731201 	 5.772958 	 -4.865192 
H 	 0.793989 	 2.429660 	 -2.239259 
H 	 0.925399 	 2.529696 	 -0.686015 
H 	 -4.563287 	 -7.544494 	 -4.475856 
H 	 -5.293970 	 7.136017 	 -5.816471 
H 	 -7.038683 	 -3.227046 	 -2.279718 
H 	 7.440088 	 -3.452989 	 -3.756682 
H 	 4.946783 	 -7.568821 	 1.981549 
H 	 5.012551 	 6.521860 	 0.590670 
H 	 5.242057 	 7.306587 	 -4.934603 
H 	 5.729111 	 5.895859 	 -5.441602 
H 	 6.601079 	 -6.985745 	 6.975342 
H 	 5.720733 	 -5.914439 	 -7.247662 
H 	 1.725417 	 -6.569172 	 -5.771307 
H 	 2.208279 	 6.874067 	 -5.976012 
H 	 -3.459956 	 0.676430 	 -1.051030 
H 	 -2.837645 	 1.793507 	 -1.883201 
H 	 0.186561 	 5.635614 	 -6.878337 
H 	 -0.786978 	 4.436146 	 -7.173753 
H 	 -5.230432 	 -1.001627 	 -4.050370 
H 	 -5.514139 	 -2.449164 	 -3.447025 
H 	 -5.858644 	 3.577617 	 -0.996359 
H 	 -6.764299 	 4.573531 	 -0.104054 
H 	 -4.260268 	 -1.373779 	 -0.999303 
H 	 -3.883027 	 -1.513923 	 -2.496672 
H 	 2.383190 	 -2.019607 	 6.455922 
H 	 3.977815 	 -2.101370 	 6.458466 
H 	 -0.230891 	 -1.981897 	 2.208918 
H 	 -0.479098 	 -1.123082 	 0.856388 
H 	 6.014508 	 -1.572360 	 -4.111930 
H 	 5.296423 	 -2.788269 	 -4.641945 
H 	 1.419297 	 2.162388 	 7.241157 
H 	 2.259069 	 0.947676 	 7.504355 
H 	 -6.412699 	 5.648866 	 1.607040 
H 	 6.957243 	 6.063921 	 1.466475 
H 	 5.867136 	 2.511921 	 4.458890 
H 	 7.339211 	 2.696356 	 4.864343 
H 	 2.044972 	 1.175185 	 0.644432 
H 	 2.361793 	 2.581542 	 1.415729 
H 	 -5.916486 	 5.963071 	 -7.104716 
O 	 0.315789 	 -6.733170 	 2.507898 
O 	 -2.164415 	 -6.162932 	 -1.426409 
O 	 -4.281457 	 5.687556 	 1.785875 
O 	 -7.015044 	 -2.783403 	 -6.945207 
O 	 -5.441737 	 0.522690 	 -6.161460 
O 	 -2.162265 	 -3.981971 	 0.264546 
O 	 1.933486 	 -3.487823 	 -1.138686 
O 	 2.109509 	 -4.172885 	 1.986034 
O 	 2.421266 	 0.061384 	 -2.644489 
O 	 5.697778 	 -6.157800 	 -3.543264 
O 	 -1.837941 	 6.722649 	 1.201608 
O 	 0.405136 	 4.836426 	 0.762762 
O 	 3.449989 	 -7.326262 	 3.168876 
O 	 6.302340 	 5.010589 	 6.946376 
O 	 -6.994630 	 -3.608571 	 5.276463 
O 	 2.857546 	 6.004814 	 5.767217 
O 	 6.238288 	 -5.580360 	 4.041484 
O 	 -0.607905 	 -3.877999 	 2.578532 
O 	 7.141375 	 3.195872 	 -5.821274 
O 	 0.101410 	 3.054797 	 -4.411719 
O 	 0.785898 	 -3.063960 	 -5.889043 
O 	 -4.085256 	 -1.527755 	 7.076074 
O 	 -3.554491 	 3.973697 	 -6.931174 
O 	 3.813260 	 -2.449925 	 -3.181019 
O 	 -4.591879 	 -3.869092 	 3.594955 
O 	 -1.389545 	 2.590445 	 1.475287 
O 	 1.008984 	 -5.590534 	 -4.112657 
O 	 -6.900165 	 -1.142337 	 -0.946148 
O 	 3.588980 	 -0.054581 	 -5.998031 
O 	 2.470560 	 -0.783133 	 0.580760 
O 	 -6.393690 	 1.118375 	 0.851116 
O 	 -2.766769 	 4.539269 	 3.989005 
O 	 4.000512 	 3.345511 	 -7.196608 
O 	 7.381469 	 -2.442262 	 2.359863 
O 	 0.838410 	 -1.082572 	 5.801525 
O 	 -1.956388 	 2.343243 	 5.764908 
O 	 5.470131 	 -2.490195 	 -0.813424 
O 	 -5.577910 	 1.179012 	 -2.672557 
O 	 -2.118887 	 5.855126 	 -5.507654 
O 	 2.957255 	 -4.939410 	 4.684937 
O 	 -2.629780 	 1.822548 	 -4.967701 
O 	 -1.053896 	 -3.493591 	 7.139158 
O 	 4.265557 	 -4.834265 	 -6.275187 
O 	 5.495677 	 -4.459378 	 1.581013 
O 	 -5.517829 	 0.305818 	 5.729482 
O 	 6.498700 	 6.111151 	 4.230249 
O 	 -4.484882 	 -4.515793 	 7.403323 
O 	 2.534158 	 4.311418 	 -1.818672 
O 	 -2.730157 	 0.096753 	 2.193396 
O 	 -6.193083 	 3.289781 	 3.567205 
O 	 3.675906 	 1.583887 	 4.471872 
O 	 2.873742 	 3.788434 	 2.694826 
O 	 3.727639 	 -6.106660 	 -1.841307 
O 	 -6.520368 	 -6.512512 	 2.136307 
O 	 -2.688801 	 6.491612 	 6.118523 
O 	 -5.520245 	 3.864282 	 -4.412110 
O 	 5.479153 	 2.586125 	 -1.425935 
O 	 -1.761376 	 -5.614305 	 -5.375342 
O 	 -7.173755 	 0.070808 	 3.443348 
O 	 -0.704163 	 -0.996068 	 -0.958621 
O 	 -5.728856 	 -3.910524 	 0.297657 
O 	 -6.898104 	 -6.164819 	 -5.156534 
O 	 -4.415742 	 3.137877 	 0.771382 
O 	 -7.202890 	 6.028453 	 -2.982456 
O 	 0.408783 	 5.111856 	 4.471595 
O 	 6.592557 	 0.558127 	 -6.801888 
O 	 -4.725545 	 -1.684848 	 1.515786 
O 	 -0.342227 	 6.676356 	 -2.716020 
O 	 4.136027 	 2.086224 	 -3.992875 
O 	 4.041182 	 -1.717912 	 3.366063 
O 	 5.426110 	 0.182622 	 1.014991 
O 	 -4.046279 	 -5.562489 	 -3.378334 
O 	 -0.044000 	 -7.293486 	 6.035390 
O 	 -5.584373 	 5.778994 	 4.736756 
O 	 0.069005 	 1.700812 	 3.965257 
O 	 6.535071 	 0.029946 	 -3.172737 
O 	 -3.036778 	 -6.498415 	 3.439234 
O 	 5.855468 	 -1.491849 	 6.032188 
O 	 5.659667 	 2.837076 	 1.850267 
O 	 0.758138 	 -0.300985 	 -5.350833 
O 	 -2.155716 	 -1.537718 	 -4.707330 
O 	 -1.590484 	 4.139186 	 -2.174471 
O 	 5.102638 	 5.949893 	 -1.574208 
O 	 -0.867919 	 -3.450359 	 -2.942698 
O 	 -1.877241 	 -0.409541 	 6.856226 
O 	 -2.324057 	 -2.192462 	 4.506424 
O 	 -5.376377 	 -6.535212 	 5.866769 
O 	 1.207940 	 -6.770423 	 -0.410776 
O 	 -4.304658 	 5.642434 	 -1.885356 
O 	 -5.149489 	 -6.684282 	 -0.532200 
O 	 2.889224 	 5.262345 	 -4.624874 
O 	 0.300880 	 2.310750 	 -1.417882 
O 	 -4.377973 	 6.984732 	 -5.396474 
O 	 -6.842001 	 -3.800178 	 -3.071921 
O 	 5.397099 	 7.243715 	 1.110978 
O 	 5.061601 	 6.590629 	 -5.556406 
O 	 6.564343 	 -6.028933 	 7.102675 
O 	 2.075470 	 -7.161555 	 -6.467219 
O 	 -2.889172 	 1.454748 	 -0.976268 
O 	 0.065855 	 4.677871 	 -6.780017 
O 	 -4.829417 	 -1.866820 	 -3.881544 
O 	 -6.741744 	 3.896582 	 -0.837836 
O 	 -3.485239 	 -1.288731 	 -1.597906 
O 	 3.175254 	 -2.398816 	 6.930267 
O 	 -0.134582 	 -1.070756 	 1.805716 
O 	 6.133971 	 -2.319151 	 -4.742158 
O 	 1.802476 	 1.379489 	 6.755982 
O 	 7.604950 	 5.333179 	 1.341486 
O 	 6.421463 	 2.555231 	 5.229272 
O 	 2.300758 	 2.098675 	 0.570698 
O 	 -6.542451 	 6.342222 	 7.135783 
K 	 6.723743 	 -5.653847 	 -0.717810 
