333
conformation = 12
H 	 1.647739 	 -6.808051 	 2.316152 
H 	 0.875945 	 -5.435829 	 2.144155 
H 	 -2.156178 	 -7.345568 	 -0.706653 
H 	 -1.602187 	 -7.366045 	 -2.119646 
H 	 -5.014960 	 6.124244 	 1.500004 
H 	 -3.466419 	 6.184856 	 1.361930 
H 	 -6.581776 	 -2.349362 	 -7.168517 
H 	 6.913755 	 -2.353000 	 -6.381991 
H 	 -6.961236 	 0.859227 	 -5.668734 
H 	 -6.373468 	 -0.481473 	 -6.102709 
H 	 -2.613656 	 -4.665587 	 -0.838870 
H 	 -3.244938 	 -3.536356 	 0.046135 
H 	 0.652913 	 -3.340379 	 -1.745314 
H 	 1.146836 	 -4.605120 	 -1.011926 
H 	 3.578885 	 -4.179850 	 1.468192 
H 	 2.211816 	 -3.347386 	 1.138731 
H 	 3.396843 	 0.466298 	 -3.084585 
H 	 1.994906 	 -0.021871 	 -3.523074 
H 	 5.099983 	 -5.749490 	 -4.490164 
H 	 6.524371 	 -5.707344 	 -4.161820 
H 	 -0.813219 	 6.466604 	 0.768650 
H 	 -1.488680 	 -7.087448 	 1.437925 
H 	 1.183160 	 5.063852 	 -0.344401 
H 	 0.080754 	 4.690881 	 0.741783 
H 	 3.415714 	 -7.149614 	 3.582653 
H 	 3.128557 	 6.290763 	 3.140290 
H 	 7.229337 	 5.186593 	 6.694660 
H 	 5.892684 	 4.435578 	 5.993435 
H 	 -5.962976 	 -3.572051 	 5.823429 
H 	 -6.006651 	 -3.624938 	 4.270456 
H 	 3.176146 	 6.308025 	 5.849460 
H 	 3.361211 	 4.781796 	 6.178981 
H 	 6.219615 	 -6.322593 	 3.826200 
H 	 6.755191 	 -4.980382 	 4.353706 
H 	 -1.213574 	 -4.032967 	 2.738797 
H 	 -1.136490 	 -4.001428 	 1.240386 
H 	 6.977954 	 3.839057 	 -6.233589 
H 	 7.071321 	 2.629738 	 -7.104597 
H 	 0.176402 	 2.960178 	 -5.844987 
H 	 -0.337903 	 1.768662 	 -4.962490 
H 	 2.237403 	 -3.062593 	 -7.058962 
H 	 1.086172 	 -3.931701 	 -6.468873 
H 	 -4.033052 	 -1.190887 	 7.155664 
H 	 -4.100297 	 -2.733474 	 7.133913 
H 	 -2.867740 	 4.082916 	 7.253552 
H 	 -3.411266 	 4.477221 	 -6.245389 
H 	 2.688201 	 -3.258366 	 -3.406566 
H 	 3.074255 	 -1.678010 	 -3.258567 
H 	 -4.017487 	 -4.006804 	 3.261972 
H 	 -4.795562 	 -3.002421 	 2.347027 
H 	 -1.849476 	 3.673117 	 1.397049 
H 	 -1.483926 	 2.792263 	 0.273488 
H 	 0.866237 	 -4.863600 	 -3.389047 
H 	 1.864793 	 -5.909227 	 -2.934075 
H 	 7.227666 	 -1.771621 	 -0.533567 
H 	 -6.351093 	 -1.840684 	 0.219591 
H 	 2.744280 	 -0.872916 	 -6.817013 
H 	 3.598047 	 0.221849 	 -6.213764 
H 	 1.688703 	 -1.523080 	 -0.223077 
H 	 1.392507 	 -1.184314 	 1.217881 
H 	 -6.180118 	 1.787124 	 0.735069 
H 	 -7.090439 	 0.633596 	 0.106974 
H 	 -2.957376 	 4.920018 	 4.037503 
H 	 -1.517283 	 4.944291 	 3.515434 
H 	 2.865582 	 4.415833 	 -6.854052 
H 	 4.308999 	 3.920242 	 -7.007625 
H 	 7.123890 	 -1.862581 	 2.108793 
H 	 7.050928 	 -2.889423 	 3.204246 
H 	 0.538425 	 -1.567856 	 4.580149 
H 	 0.689410 	 -0.690577 	 5.849019 
H 	 -2.374744 	 2.888230 	 4.779958 
H 	 -1.209704 	 1.910011 	 5.180959 
H 	 4.228002 	 -2.071822 	 -1.318246 
H 	 5.026105 	 -1.401643 	 -0.218985 
H 	 -5.609498 	 1.827429 	 -2.944279 
H 	 -6.727162 	 0.780860 	 -2.639753 
H 	 -1.774385 	 6.676072 	 -4.699256 
H 	 -3.208172 	 6.723778 	 -5.345944 
H 	 3.212498 	 -4.113447 	 5.763804 
H 	 3.252573 	 -4.809518 	 4.362023 
H 	 -2.425311 	 0.439071 	 -4.574419 
H 	 -3.155668 	 1.375996 	 -5.506218 
H 	 -1.083621 	 -3.822901 	 5.740181 
H 	 -1.158352 	 -4.728108 	 6.999402 
H 	 3.213378 	 -4.353067 	 -6.025454 
H 	 3.622243 	 -5.879407 	 -5.971383 
H 	 5.759708 	 -3.891481 	 1.403565 
H 	 5.095932 	 -3.855593 	 0.046233 
H 	 -4.965935 	 1.140501 	 5.519382 
H 	 -5.764550 	 -0.072555 	 5.988499 
H 	 7.187080 	 6.871927 	 3.850747 
H 	 6.057014 	 6.204918 	 4.628723 
H 	 -4.612609 	 -5.439274 	 7.408072 
H 	 -3.321502 	 -4.760041 	 7.057338 
H 	 2.486059 	 4.744637 	 -2.745844 
H 	 3.525783 	 4.871253 	 -1.679022 
H 	 -2.956655 	 1.084896 	 2.379835 
H 	 -1.973294 	 -0.200792 	 2.296001 
H 	 -5.750341 	 4.275868 	 3.534582 
H 	 -5.546331 	 2.916512 	 2.785712 
H 	 2.827023 	 1.433215 	 5.527971 
H 	 3.291299 	 1.182134 	 3.995844 
H 	 3.630079 	 3.884845 	 2.092620 
H 	 2.765778 	 3.286374 	 3.271493 
H 	 3.672090 	 -5.155645 	 -1.731665 
H 	 2.904516 	 -6.209729 	 -0.929401 
H 	 -6.641348 	 -7.456981 	 1.707653 
H 	 -6.605252 	 -6.236362 	 2.664734 
H 	 -2.444667 	 7.075571 	 6.377133 
H 	 -3.644452 	 6.308960 	 6.868367 
H 	 -6.290585 	 3.744597 	 -4.501608 
H 	 -5.012517 	 2.905768 	 -4.731227 
H 	 5.927818 	 2.830746 	 -1.050159 
H 	 4.350451 	 2.746320 	 -1.112340 
H 	 -2.533607 	 -5.543670 	 -5.514784 
H 	 -1.255009 	 -6.366123 	 -5.864040 
H 	 7.553359 	 0.419081 	 2.567952 
H 	 -6.765273 	 0.228697 	 3.950743 
H 	 -1.777183 	 -1.022873 	 -0.862868 
H 	 -0.794099 	 0.130652 	 -1.054405 
H 	 -5.524633 	 -4.720023 	 0.745606 
H 	 -5.267320 	 -5.056728 	 -0.775061 
H 	 -5.966169 	 -4.930885 	 -5.607537 
H 	 -7.280024 	 -5.589802 	 -6.113337 
H 	 -4.396227 	 3.637447 	 0.885526 
H 	 -3.706082 	 2.491250 	 0.201355 
H 	 7.438975 	 6.037838 	 -3.804062 
H 	 -7.051379 	 5.376226 	 -2.440982 
H 	 1.179009 	 5.395322 	 4.298402 
H 	 0.341297 	 6.513492 	 3.643851 
H 	 5.853098 	 -0.177663 	 -7.481897 
H 	 5.856158 	 -0.624139 	 -6.024380 
H 	 -4.326213 	 -0.690361 	 2.127039 
H 	 -5.882568 	 -0.927359 	 2.222200 
H 	 0.393063 	 6.893218 	 -3.436642 
H 	 -0.606653 	 5.725655 	 -3.025431 
H 	 4.792128 	 2.423328 	 -3.213176 
H 	 5.235281 	 2.640330 	 -4.735071 
H 	 3.428838 	 -2.377127 	 2.621375 
H 	 4.414306 	 -1.596504 	 3.454962 
H 	 4.921235 	 0.677591 	 0.134922 
H 	 4.267384 	 -0.039319 	 1.386599 
H 	 -5.197052 	 -5.163977 	 -3.266560 
H 	 -3.881002 	 -6.133281 	 -3.050278 
H 	 0.169418 	 -7.229563 	 6.859265 
H 	 0.766952 	 -6.358744 	 5.748290 
H 	 -5.245716 	 6.696759 	 4.521193 
H 	 -5.943689 	 5.723594 	 5.382981 
H 	 -0.341032 	 1.386331 	 2.812163 
H 	 0.285387 	 2.730229 	 2.860283 
H 	 5.740433 	 0.614219 	 -3.366209 
H 	 5.893411 	 -0.420061 	 -2.158867 
H 	 -2.927588 	 -6.860668 	 3.770783 
H 	 -3.895841 	 -6.374383 	 2.712302 
H 	 6.739698 	 -1.889279 	 5.599495 
H 	 6.121832 	 -0.746810 	 4.624297 
H 	 6.257332 	 3.955931 	 1.515524 
H 	 5.937341 	 2.542080 	 1.465366 
H 	 1.111359 	 -0.225953 	 -5.252215 
H 	 -0.220783 	 -0.919112 	 -4.726331 
H 	 -3.287175 	 -1.983067 	 -4.571700 
H 	 -2.566321 	 -1.582555 	 -5.807599 
H 	 -1.108794 	 3.865855 	 -3.756018 
H 	 -0.571440 	 3.636237 	 -2.287277 
H 	 4.540745 	 6.857566 	 -2.114507 
H 	 5.753699 	 5.957807 	 -2.336067 
H 	 -1.041548 	 -4.831785 	 -2.757041 
H 	 -1.673850 	 -3.756337 	 -3.624452 
H 	 -1.535901 	 -0.672080 	 7.058591 
H 	 -2.369514 	 0.560079 	 6.601296 
H 	 -3.560169 	 -1.988628 	 4.108786 
H 	 -2.034329 	 -1.736263 	 4.241166 
H 	 -5.548840 	 -7.126813 	 6.492254 
H 	 -6.659313 	 -6.119855 	 6.307036 
H 	 0.353763 	 -6.598857 	 0.326047 
H 	 -0.046735 	 -6.590967 	 -1.190048 
H 	 -4.468112 	 5.063596 	 -2.979457 
H 	 -3.231235 	 4.764729 	 -2.192980 
H 	 -5.433892 	 7.262419 	 -1.867725 
H 	 -4.928205 	 7.086293 	 -0.401726 
H 	 1.900778 	 4.467792 	 -4.944713 
H 	 3.093509 	 5.458291 	 -4.972053 
H 	 0.315504 	 1.439168 	 -2.609814 
H 	 1.473470 	 1.726274 	 -1.569433 
H 	 -5.460712 	 -7.227817 	 -5.259515 
H 	 -5.720499 	 6.516861 	 -6.299035 
H 	 -6.979597 	 -3.133030 	 -1.854942 
H 	 7.222990 	 -3.602832 	 -3.199582 
H 	 4.671609 	 7.141872 	 1.448775 
H 	 5.063022 	 6.072666 	 0.297165 
H 	 5.592633 	 6.990652 	 -4.765702 
H 	 5.760290 	 5.959885 	 -5.979489 
H 	 6.154857 	 -7.050237 	 7.171774 
H 	 5.807564 	 -5.526978 	 7.276158 
H 	 1.119937 	 -6.361643 	 -5.207426 
H 	 0.741577 	 7.158077 	 -5.896935 
H 	 -3.439186 	 0.855871 	 -1.674180 
H 	 -2.865263 	 2.013295 	 -2.478233 
H 	 -0.356538 	 4.715988 	 -7.466397 
H 	 0.831630 	 4.617900 	 6.428793 
H 	 -5.559990 	 -0.894931 	 -4.012241 
H 	 -5.743950 	 -2.352255 	 -3.540740 
H 	 -6.560895 	 2.957477 	 -1.688842 
H 	 -7.123933 	 3.913478 	 -0.581804 
H 	 -4.470757 	 -1.850870 	 -0.564064 
H 	 -4.013946 	 -1.761736 	 -1.969607 
H 	 2.612194 	 -2.005692 	 6.023090 
H 	 4.183138 	 -1.888158 	 6.161018 
H 	 -0.490402 	 -2.078606 	 2.165762 
H 	 -0.471290 	 -0.991265 	 0.961798 
H 	 5.777459 	 -1.483713 	 -3.858927 
H 	 4.828454 	 -2.508689 	 -4.482180 
H 	 0.797879 	 1.813510 	 6.594859 
H 	 1.663692 	 0.982873 	 -7.252622 
H 	 -7.076237 	 5.035116 	 2.245173 
H 	 6.660760 	 5.992393 	 1.654076 
H 	 5.584594 	 2.230248 	 5.220753 
H 	 7.108762 	 2.694051 	 5.136174 
H 	 2.591069 	 0.644856 	 0.133318 
H 	 2.398883 	 2.173685 	 0.453368 
H 	 -5.821212 	 4.803503 	 -7.436025 
O 	 0.735643 	 -6.403672 	 2.136085 
O 	 -2.066105 	 -6.751740 	 -1.501183 
O 	 -4.254331 	 5.824396 	 0.942316 
O 	 7.377197 	 -2.563614 	 -7.226856 
O 	 -6.125202 	 0.358704 	 -5.677152 
O 	 -2.433401 	 -4.056962 	 -0.123283 
O 	 1.319304 	 -3.631615 	 -1.092009 
O 	 2.645397 	 -3.931900 	 1.788008 
O 	 2.646931 	 -0.079829 	 -2.785268 
O 	 5.697991 	 -6.094386 	 -3.797129 
O 	 -1.629787 	 7.047421 	 0.837923 
O 	 0.323544 	 5.338971 	 0.060427 
O 	 3.128547 	 7.235937 	 2.822840 
O 	 6.141707 	 5.137520 	 6.649855 
O 	 -6.553257 	 -3.503172 	 5.056471 
O 	 3.238655 	 5.443434 	 5.449504 
O 	 6.514544 	 -5.454704 	 3.535870 
O 	 -0.572413 	 -3.848111 	 2.044940 
O 	 7.058172 	 2.876156 	 -6.162935 
O 	 0.200908 	 2.592039 	 -4.935628 
O 	 1.905638 	 -3.435401 	 -6.225077 
O 	 -4.649081 	 -1.933843 	 7.282841 
O 	 -3.510053 	 3.814381 	 -6.964178 
O 	 3.402805 	 -2.636820 	 -3.257499 
O 	 -4.862593 	 -3.891605 	 2.804015 
O 	 -1.163488 	 3.044556 	 1.148360 
O 	 1.367709 	 -5.602406 	 -3.717575 
O 	 -6.759728 	 -1.447347 	 -0.566264 
O 	 2.678565 	 -0.109726 	 -6.245631 
O 	 2.120170 	 -1.111036 	 0.542089 
O 	 -7.056477 	 1.337739 	 0.787188 
O 	 -2.345971 	 4.394865 	 3.521261 
O 	 3.405688 	 3.698465 	 -7.243691 
O 	 6.562767 	 -2.580845 	 2.416793 
O 	 0.591954 	 -1.632577 	 5.559246 
O 	 -1.923766 	 2.476807 	 5.564006 
O 	 5.143301 	 -2.053757 	 -0.998399 
O 	 -5.877368 	 1.135889 	 -2.281457 
O 	 -2.278592 	 6.485562 	 -5.520227 
O 	 2.815541 	 -4.839997 	 5.224876 
O 	 -2.730675 	 1.391393 	 -4.637727 
O 	 -1.494458 	 -3.920647 	 6.591592 
O 	 4.008562 	 -4.991142 	 -6.054995 
O 	 5.170011 	 -4.462543 	 0.843729 
O 	 -5.380249 	 0.326349 	 5.205458 
O 	 6.227845 	 6.815953 	 3.876234 
O 	 -4.033297 	 -4.719762 	 -7.142502 
O 	 2.563194 	 4.781574 	 -1.762143 
O 	 -2.868925 	 0.126370 	 2.569852 
O 	 -6.217713 	 3.482458 	 3.193934 
O 	 3.407427 	 1.710216 	 4.789175 
O 	 2.726540 	 3.866988 	 2.465657 
O 	 3.572740 	 -6.121970 	 -1.612965 
O 	 -6.119042 	 -6.666802 	 1.904659 
O 	 -3.232194 	 6.624452 	 6.037946 
O 	 -5.443968 	 3.527462 	 -4.094127 
O 	 5.182995 	 2.355594 	 -1.415048 
O 	 -1.564747 	 -5.448455 	 -5.661609 
O 	 7.427913 	 -0.141998 	 3.364414 
O 	 -0.824056 	 -0.810459 	 -0.777124 
O 	 -5.710665 	 -4.439123 	 -0.169012 
O 	 -6.803197 	 -5.337573 	 -5.314206 
O 	 -4.421412 	 2.652816 	 0.878690 
O 	 -7.189717 	 6.233726 	 -2.886256 
O 	 0.344461 	 5.522955 	 3.789651 
O 	 5.747881 	 0.161293 	 -6.572358 
O 	 -5.064351 	 -1.272571 	 1.804702 
O 	 -0.563572 	 6.639604 	 -3.364894 
O 	 4.662926 	 2.096321 	 -4.157191 
O 	 3.524421 	 -1.489389 	 3.018973 
O 	 5.029684 	 -0.062663 	 0.794654 
O 	 -4.453254 	 -5.637373 	 -3.696723 
O 	 0.043788 	 -7.053351 	 5.907095 
O 	 -5.814894 	 5.926226 	 4.417533 
O 	 0.101892 	 1.956930 	 3.432380 
O 	 6.273434 	 -0.123196 	 -3.017819 
O 	 -3.000859 	 -6.164358 	 3.077259 
O 	 5.936213 	 -1.391236 	 5.355287 
O 	 5.475890 	 3.398778 	 1.388342 
O 	 0.422043 	 -0.241670 	 -4.551667 
O 	 -2.379518 	 -1.662078 	 -4.854120 
O 	 -1.331217 	 3.987069 	 -2.808039 
O 	 4.859082 	 5.950500 	 -1.953668 
O 	 -1.075210 	 -3.868189 	 -2.866865 
O 	 -2.348737 	 -0.156112 	 7.251037 
O 	 -2.685631 	 -2.431682 	 4.020864 
O 	 -5.729876 	 -6.274837 	 6.022090 
O 	 0.691170 	 -6.414221 	 -0.589268 
O 	 -3.991571 	 5.354645 	 -2.178024 
O 	 -5.413860 	 -7.219500 	 -0.991282 
O 	 2.147759 	 5.391547 	 -4.765088 
O 	 0.482551 	 1.773977 	 -1.715169 
O 	 -5.226461 	 6.727562 	 -5.465542 
O 	 -6.950393 	 -3.792464 	 -2.578330 
O 	 5.264326 	 6.934193 	 0.693204 
O 	 5.524461 	 6.030633 	 -5.036100 
O 	 6.545105 	 -6.182995 	 7.126042 
O 	 1.047911 	 -6.816354 	 -6.123203 
O 	 -2.906748 	 1.663681 	 -1.583176 
O 	 0.594674 	 4.519036 	 7.365782 
O 	 -5.267765 	 -1.800204 	 -4.179847 
O 	 -7.191955 	 3.695418 	 -1.511355 
O 	 -3.718677 	 -1.533710 	 -1.076673 
O 	 3.371021 	 -2.250871 	 6.572144 
O 	 -0.492808 	 -1.092153 	 1.980588 
O 	 5.727739 	 -2.166677 	 -4.579627 
O 	 1.304976 	 0.972668 	 6.714370 
O 	 7.457558 	 5.427385 	 1.426007 
O 	 6.440341 	 2.189670 	 5.659283 
O 	 2.924976 	 1.567252 	 -0.068726 
O 	 -6.310316 	 5.561498 	 7.053678 
K 	 6.762495 	 -6.080932 	 -0.894455 
