333
conformation = 18
H 	 1.425090 	 -6.895707 	 2.423624 
H 	 0.579344 	 -5.512758 	 2.323905 
H 	 -2.296229 	 -7.132424 	 -0.873780 
H 	 -1.740200 	 -7.161109 	 -2.385881 
H 	 -4.670349 	 6.394512 	 1.726619 
H 	 -3.369247 	 6.093749 	 0.919178 
H 	 -6.660915 	 -2.924523 	 -6.773355 
H 	 6.722508 	 -2.984360 	 -6.733038 
H 	 -6.877973 	 0.700123 	 -5.690569 
H 	 -6.123878 	 -0.569429 	 -6.075204 
H 	 -2.416497 	 -4.910540 	 -0.491660 
H 	 -2.741899 	 -3.451926 	 -0.802491 
H 	 0.815049 	 -3.196125 	 -1.380591 
H 	 1.066189 	 -4.710477 	 -0.923357 
H 	 3.477262 	 -4.299471 	 1.405037 
H 	 2.207701 	 -3.789783 	 0.784430 
H 	 2.933620 	 0.760643 	 -3.413345 
H 	 1.622337 	 -0.052612 	 -3.178515 
H 	 4.958022 	 -5.503907 	 -4.324104 
H 	 6.474089 	 -6.027916 	 -4.384495 
H 	 -0.897768 	 6.590943 	 0.715206 
H 	 -1.569394 	 -7.370487 	 1.670357 
H 	 1.196431 	 5.068055 	 -0.396813 
H 	 0.441880 	 4.476079 	 0.735786 
H 	 3.615129 	 -6.948739 	 3.197888 
H 	 2.961841 	 6.654251 	 3.537263 
H 	 7.114614 	 5.384051 	 6.676143 
H 	 6.171957 	 4.113944 	 6.255593 
H 	 -6.631687 	 -3.097304 	 5.757325 
H 	 -5.761375 	 -3.581691 	 4.601560 
H 	 3.385269 	 6.318075 	 6.143237 
H 	 3.290815 	 4.840746 	 5.903776 
H 	 6.317864 	 -6.331529 	 4.071214 
H 	 6.992365 	 -4.927792 	 4.170923 
H 	 -1.401107 	 -3.821531 	 2.869269 
H 	 -1.258309 	 -3.936046 	 1.331471 
H 	 6.814996 	 3.813220 	 -6.885525 
H 	 6.884651 	 2.260831 	 -6.690681 
H 	 0.456622 	 3.122758 	 -5.695097 
H 	 -0.545494 	 2.013544 	 -5.294356 
H 	 1.960709 	 -3.099661 	 -7.164152 
H 	 0.829136 	 -3.901532 	 -6.430837 
H 	 -3.676860 	 -1.660417 	 6.911179 
H 	 -4.479522 	 -2.852266 	 -7.453485 
H 	 -3.044845 	 3.258907 	 7.296067 
H 	 -2.884337 	 4.464318 	 -6.620676 
H 	 2.457382 	 -3.035004 	 -3.439718 
H 	 2.974401 	 -1.615692 	 -3.117998 
H 	 -3.890102 	 -4.022248 	 2.984053 
H 	 -5.017954 	 -3.038825 	 2.557547 
H 	 -2.464685 	 2.953988 	 1.529037 
H 	 -1.605468 	 2.722434 	 0.199432 
H 	 0.386398 	 -4.956616 	 -3.586927 
H 	 1.642090 	 -5.755917 	 -3.120611 
H 	 7.112214 	 -1.637001 	 -1.006915 
H 	 -6.561526 	 -1.889862 	 -0.056118 
H 	 3.265037 	 -0.803428 	 -6.709724 
H 	 3.744922 	 0.538122 	 -6.199769 
H 	 1.377851 	 -1.418079 	 -0.140593 
H 	 1.511226 	 -0.928805 	 1.341584 
H 	 -6.034345 	 1.554502 	 0.784798 
H 	 -6.912880 	 0.438009 	 0.272319 
H 	 -2.903037 	 5.262621 	 4.114931 
H 	 -1.443991 	 4.794151 	 3.846481 
H 	 2.837470 	 4.028797 	 -6.857502 
H 	 4.362956 	 4.072610 	 -7.189258 
H 	 6.914956 	 -1.692756 	 2.219814 
H 	 6.782314 	 -2.680685 	 3.380119 
H 	 0.603891 	 -1.095511 	 4.746492 
H 	 0.782241 	 -0.635700 	 6.201335 
H 	 -2.361752 	 3.287137 	 4.944865 
H 	 -1.324479 	 2.234764 	 4.998576 
H 	 4.837212 	 -2.480779 	 -1.737170 
H 	 4.793086 	 -1.267920 	 -0.627718 
H 	 -6.161437 	 1.711563 	 -3.463564 
H 	 -6.763398 	 0.614054 	 -2.544768 
H 	 -1.676986 	 6.346582 	 -4.743403 
H 	 -3.130690 	 6.641269 	 -5.231975 
H 	 3.266972 	 -4.237013 	 5.639917 
H 	 2.613030 	 -4.208388 	 4.282565 
H 	 -2.926583 	 0.662501 	 -4.721726 
H 	 -3.267223 	 1.846886 	 -5.685680 
H 	 -0.959350 	 -3.411612 	 6.062957 
H 	 -1.068703 	 -4.135862 	 -7.475423 
H 	 3.361473 	 -4.215567 	 -5.916415 
H 	 3.508211 	 -5.434737 	 -6.783942 
H 	 5.314987 	 -4.275120 	 1.896762 
H 	 5.364517 	 -3.433259 	 0.579434 
H 	 -5.644396 	 1.199529 	 5.638351 
H 	 -5.458459 	 -0.259706 	 6.130654 
H 	 7.149054 	 6.246021 	 4.103742 
H 	 5.808153 	 6.137328 	 4.727550 
H 	 -4.592126 	 -5.017861 	 6.691457 
H 	 -3.201040 	 -4.635086 	 -7.542000 
H 	 2.157856 	 5.403661 	 -2.214266 
H 	 3.446346 	 4.725775 	 -1.690338 
H 	 -2.603886 	 0.944976 	 1.754708 
H 	 -2.035155 	 -0.318084 	 2.365336 
H 	 -5.801597 	 4.013575 	 3.828355 
H 	 -5.582967 	 3.032465 	 2.665727 
H 	 2.543526 	 1.727162 	 5.066071 
H 	 3.095924 	 1.045432 	 3.869920 
H 	 3.681736 	 3.689460 	 2.259264 
H 	 2.723474 	 3.438711 	 3.344893 
H 	 3.500605 	 -5.194638 	 -2.075825 
H 	 2.852740 	 -6.289903 	 -1.200600 
H 	 -6.885275 	 -7.250734 	 1.365926 
H 	 -6.915790 	 -6.132999 	 2.456593 
H 	 -2.492641 	 7.018259 	 6.057275 
H 	 -3.521359 	 6.051664 	 6.724499 
H 	 -6.275114 	 3.992074 	 -4.766492 
H 	 -4.929850 	 3.356327 	 -4.920114 
H 	 6.027887 	 3.087187 	 -1.437881 
H 	 4.857838 	 2.720216 	 -0.622593 
H 	 -2.488822 	 -4.985235 	 -5.501300 
H 	 -1.832396 	 -6.371365 	 -5.633113 
H 	 7.408733 	 0.768089 	 2.677557 
H 	 -6.785365 	 0.086241 	 3.938152 
H 	 -1.714549 	 -1.236546 	 -1.155595 
H 	 -1.075578 	 0.193231 	 -1.138326 
H 	 -5.914346 	 -4.033721 	 0.756041 
H 	 -5.473357 	 -5.083203 	 -0.176314 
H 	 -6.471788 	 -5.049507 	 -5.158288 
H 	 -7.206054 	 -5.657106 	 -6.397025 
H 	 -4.345074 	 3.810687 	 0.918563 
H 	 -4.234956 	 2.450058 	 0.037518 
H 	 7.441188 	 6.049308 	 -3.987660 
H 	 -7.001381 	 5.300317 	 -2.716101 
H 	 1.065930 	 5.153650 	 4.069436 
H 	 0.100771 	 6.350380 	 4.199042 
H 	 5.746966 	 -0.022454 	 7.113260 
H 	 5.712222 	 -0.680766 	 -6.461149 
H 	 -3.999691 	 -1.020807 	 1.636069 
H 	 -5.368351 	 -0.823463 	 2.273160 
H 	 0.204528 	 6.925376 	 -3.479502 
H 	 -0.722664 	 5.754504 	 -2.988890 
H 	 4.717281 	 2.616759 	 -3.558433 
H 	 4.913322 	 2.155994 	 -4.989867 
H 	 2.958745 	 -2.247802 	 2.529066 
H 	 4.426401 	 -1.781679 	 2.615963 
H 	 4.765762 	 0.908672 	 0.180665 
H 	 4.195551 	 -0.174053 	 1.028164 
H 	 -4.749946 	 -5.068452 	 -3.142351 
H 	 -3.940723 	 -6.257508 	 -2.918514 
H 	 0.350154 	 -7.194225 	 6.782030 
H 	 0.375703 	 -6.230220 	 5.584897 
H 	 -5.006581 	 6.632504 	 4.284033 
H 	 -5.924840 	 5.969056 	 5.288413 
H 	 -0.332230 	 1.610961 	 2.451274 
H 	 -0.143014 	 2.860131 	 3.313282 
H 	 5.777220 	 0.713364 	 -3.472419 
H 	 5.812424 	 -0.165706 	 -2.267113 
H 	 -3.147295 	 -6.137281 	 4.047847 
H 	 -3.987000 	 -6.269907 	 2.692546 
H 	 6.512580 	 -1.690497 	 5.982154 
H 	 6.000076 	 -0.958003 	 4.756727 
H 	 6.123940 	 3.986378 	 1.298424 
H 	 5.916068 	 2.395321 	 1.476076 
H 	 1.328453 	 -0.206921 	 -5.526251 
H 	 0.386158 	 -1.257473 	 -4.957713 
H 	 -3.330433 	 -1.969496 	 -4.650989 
H 	 -2.297828 	 -1.443328 	 -5.802487 
H 	 -1.244598 	 3.544111 	 -3.587904 
H 	 -0.825376 	 3.576048 	 -2.213050 
H 	 4.559749 	 6.667142 	 -2.409817 
H 	 5.856112 	 5.802461 	 -2.279058 
H 	 -1.794723 	 -4.418117 	 -3.322806 
H 	 -1.064759 	 -3.281955 	 -3.901370 
H 	 -1.390204 	 -0.369868 	 6.338252 
H 	 -2.249012 	 0.811502 	 6.777491 
H 	 -3.231319 	 -1.709244 	 3.532909 
H 	 -2.093234 	 -1.926957 	 4.520472 
H 	 -5.866247 	 -7.218104 	 6.393758 
H 	 -6.490530 	 -5.889494 	 5.841448 
H 	 1.051780 	 -6.359302 	 0.274886 
H 	 -0.024284 	 -6.611874 	 -0.779595 
H 	 -4.684562 	 5.389406 	 -3.017827 
H 	 -3.477412 	 4.978120 	 -2.181382 
H 	 -5.519666 	 -7.340099 	 -1.766727 
H 	 -4.765898 	 7.198855 	 -0.570476 
H 	 2.353810 	 4.663165 	 -4.419052 
H 	 3.145591 	 5.886524 	 -4.785985 
H 	 0.498925 	 1.604462 	 -2.655110 
H 	 1.370805 	 1.894727 	 -1.451375 
H 	 -5.790240 	 -7.082565 	 -5.162802 
H 	 -5.635433 	 6.663397 	 -6.251976 
H 	 -6.733363 	 -3.314423 	 -1.835624 
H 	 7.221280 	 -3.126917 	 -3.040139 
H 	 4.366368 	 7.220835 	 1.060772 
H 	 4.923264 	 6.781089 	 -0.274990 
H 	 5.224121 	 7.203996 	 -5.000847 
H 	 5.673064 	 6.202682 	 -6.095372 
H 	 6.349047 	 -6.960118 	 6.760358 
H 	 5.749030 	 -5.633257 	 7.197222 
H 	 1.042438 	 -6.344391 	 -5.441133 
H 	 1.759673 	 7.229115 	 -5.962823 
H 	 -3.541416 	 0.884729 	 -1.762806 
H 	 -2.709057 	 2.125417 	 -2.223107 
H 	 -0.153391 	 5.197129 	 -6.851851 
H 	 0.138027 	 4.908054 	 6.608294 
H 	 -5.558614 	 -0.751037 	 -4.225783 
H 	 -6.004777 	 -2.245286 	 -3.818351 
H 	 -6.770018 	 2.921126 	 -1.272333 
H 	 -7.002644 	 4.234306 	 -0.535438 
H 	 -4.348005 	 -1.050543 	 -0.595135 
H 	 -4.433543 	 -1.548729 	 -2.135837 
H 	 2.876479 	 -1.990599 	 5.843013 
H 	 4.256308 	 -2.307844 	 6.355814 
H 	 -0.504969 	 -2.061616 	 1.912888 
H 	 -0.674882 	 -0.981721 	 0.780300 
H 	 6.149750 	 -1.413241 	 -4.310917 
H 	 4.920078 	 -2.375732 	 -4.325504 
H 	 0.810712 	 1.622701 	 7.240209 
H 	 2.087797 	 0.689089 	 7.300093 
H 	 -6.865722 	 4.956091 	 1.953930 
H 	 6.837887 	 5.898648 	 1.826396 
H 	 5.485482 	 2.055368 	 5.445299 
H 	 6.630577 	 2.337048 	 4.505322 
H 	 2.387418 	 0.766090 	 0.200742 
H 	 2.546612 	 2.190389 	 0.825182 
H 	 -6.046595 	 4.956278 	 7.053210 
O 	 0.570006 	 -6.485408 	 2.052995 
O 	 -2.225891 	 -6.627702 	 -1.731464 
O 	 -4.278913 	 5.780612 	 1.100293 
O 	 7.447352 	 -2.542959 	 -7.227914 
O 	 -5.974767 	 0.350679 	 -5.796315 
O 	 -2.426803 	 -4.012225 	 -0.088745 
O 	 1.516755 	 -3.848569 	 -1.220998 
O 	 2.531814 	 -4.004530 	 1.696161 
O 	 2.533733 	 0.090112 	 -2.819513 
O 	 5.627878 	 -6.093278 	 -3.876747 
O 	 -1.789002 	 6.983980 	 0.877368 
O 	 0.354476 	 5.197906 	 0.074453 
O 	 3.008778 	 7.298802 	 2.817759 
O 	 6.122647 	 5.059619 	 6.537224 
O 	 -6.677668 	 -3.508821 	 4.884255 
O 	 3.037484 	 5.685063 	 5.463931 
O 	 6.340639 	 -5.420685 	 3.663032 
O 	 -0.744498 	 -3.797794 	 2.145423 
O 	 7.087762 	 3.104731 	 -6.280459 
O 	 -0.027099 	 2.755294 	 -4.916894 
O 	 1.550852 	 -3.275280 	 -6.287239 
O 	 -4.582960 	 -1.923695 	 7.109349 
O 	 -3.557956 	 3.928450 	 -7.123439 
O 	 3.309033 	 -2.559935 	 -3.309568 
O 	 -4.858867 	 -3.915115 	 2.974608 
O 	 -1.555381 	 2.919510 	 1.158007 
O 	 1.123921 	 -5.535997 	 -3.892540 
O 	 -6.825122 	 -1.444822 	 -0.896827 
O 	 2.942446 	 0.001546 	 -6.268409 
O 	 2.042328 	 -1.114618 	 0.522591 
O 	 -6.999362 	 1.293316 	 0.726579 
O 	 -2.393702 	 4.500965 	 3.697815 
O 	 3.532332 	 3.557171 	 -7.333700 
O 	 6.787203 	 -2.641715 	 2.415695 
O 	 0.475741 	 -1.416315 	 5.657603 
O 	 -2.066205 	 2.522437 	 5.563758 
O 	 5.282343 	 -2.090439 	 -0.928337 
O 	 -5.982721 	 1.201241 	 -2.654767 
O 	 -2.274031 	 6.267345 	 -5.531398 
O 	 2.856561 	 -4.851233 	 4.991770 
O 	 -2.753507 	 1.621830 	 -4.878271 
O 	 -1.626666 	 -3.872040 	 6.644034 
O 	 4.071794 	 -4.873697 	 -6.196574 
O 	 4.988884 	 -4.246002 	 0.970373 
O 	 -5.473271 	 0.305038 	 5.312043 
O 	 6.238055 	 6.603976 	 3.975026 
O 	 -4.174448 	 -4.567227 	 -7.443136 
O 	 2.460542 	 4.588127 	 -1.753304 
O 	 -2.904654 	 0.154191 	 2.286616 
O 	 -6.281764 	 3.514536 	 3.118114 
O 	 3.371431 	 1.773525 	 4.510812 
O 	 2.723310 	 3.799912 	 2.445034 
O 	 3.638497 	 -6.113715 	 -1.777591 
O 	 -6.306793 	 -6.661309 	 1.902263 
O 	 -3.271038 	 6.477269 	 5.888755 
O 	 -5.580145 	 3.547136 	 -4.230264 
O 	 5.329359 	 2.369053 	 -1.420059 
O 	 -1.607013 	 -5.405275 	 -5.618755 
O 	 7.452057 	 -0.044258 	 3.218237 
O 	 -0.944418 	 -0.736480 	 -0.844179 
O 	 -5.770665 	 -4.143303 	 -0.206776 
O 	 -6.985894 	 -5.811257 	 -5.455798 
O 	 -4.379168 	 2.804680 	 0.935698 
O 	 -7.344768 	 6.160369 	 -3.035863 
O 	 0.137886 	 5.425824 	 3.894995 
O 	 5.675831 	 0.226238 	 -6.839591 
O 	 -4.908743 	 -1.423674 	 1.644521 
O 	 -0.700369 	 6.708445 	 -3.248658 
O 	 4.334255 	 1.985778 	 -4.214306 
O 	 3.539836 	 -1.587855 	 2.947345 
O 	 5.059945 	 0.133013 	 0.662314 
O 	 -4.367170 	 -5.774977 	 -3.685593 
O 	 0.005074 	 -7.128011 	 5.853705 
O 	 -5.722615 	 5.975558 	 4.333653 
O 	 -0.061240 	 1.898224 	 3.361804 
O 	 6.270869 	 -0.060326 	 -3.108018 
O 	 -3.086356 	 -6.157230 	 3.077360 
O 	 5.652502 	 -1.435368 	 5.543028 
O 	 5.465953 	 3.263878 	 1.468374 
O 	 0.469022 	 -0.245669 	 -5.012430 
O 	 -2.387201 	 -1.718792 	 -4.843014 
O 	 -1.467439 	 4.054908 	 -2.775624 
O 	 4.953065 	 5.903179 	 -1.921522 
O 	 -1.065569 	 -3.799263 	 -3.079420 
O 	 -2.103491 	 -0.155791 	 6.945301 
O 	 -2.616504 	 -2.404318 	 3.854651 
O 	 -5.685125 	 -6.393931 	 5.905195 
O 	 0.885562 	 -6.213427 	 -0.698755 
O 	 -4.280319 	 5.506746 	 -2.148770 
O 	 -5.338971 	 -6.966373 	 -0.881999 
O 	 2.264804 	 5.504165 	 -4.925597 
O 	 0.435259 	 1.911891 	 -1.731196 
O 	 -5.197321 	 7.104772 	 -5.466041 
O 	 -6.933642 	 -3.689365 	 -2.708340 
O 	 5.219691 	 7.142609 	 0.586076 
O 	 5.326172 	 6.236191 	 -5.169032 
O 	 6.567789 	 -6.099615 	 7.113496 
O 	 1.218912 	 -6.909445 	 -6.278604 
O 	 -2.794776 	 1.465826 	 -1.489110 
O 	 0.341362 	 4.558472 	 -7.393646 
O 	 -5.292873 	 -1.702860 	 -4.251679 
O 	 -7.200027 	 3.780125 	 -1.390884 
O 	 -3.851013 	 -1.496514 	 -1.321216 
O 	 3.341593 	 -2.236662 	 6.666246 
O 	 -0.462353 	 -1.058377 	 1.783798 
O 	 5.763491 	 -2.181976 	 -4.804138 
O 	 1.382719 	 1.038814 	 6.683627 
O 	 7.515469 	 5.437365 	 1.274068 
O 	 6.442738 	 2.315418 	 5.468194 
O 	 2.744768 	 1.681528 	 -0.019204 
O 	 -6.463477 	 5.811180 	 7.122167 
K 	 6.652930 	 -5.964610 	 -0.914842 
