333
conformation = 15
H 	 1.527585 	 -6.724587 	 2.310483 
H 	 0.656956 	 -5.515922 	 2.402145 
H 	 -2.076695 	 -7.281641 	 -0.845987 
H 	 -1.920348 	 -7.233247 	 -2.427717 
H 	 -4.939263 	 6.422046 	 1.375774 
H 	 -3.403305 	 6.241667 	 1.286301 
H 	 -6.661611 	 -2.473704 	 -6.781561 
H 	 6.750987 	 -2.567720 	 -6.535457 
H 	 -6.884178 	 0.836839 	 -5.583746 
H 	 -6.330700 	 -0.564029 	 -6.009346 
H 	 -2.622482 	 -4.861109 	 -0.582900 
H 	 -3.205086 	 -3.432098 	 -0.407013 
H 	 0.698528 	 -3.278941 	 -1.650531 
H 	 0.865163 	 -4.418866 	 -0.708550 
H 	 3.421832 	 -4.287603 	 1.277884 
H 	 2.144688 	 -3.462489 	 0.999241 
H 	 3.189651 	 0.606449 	 -3.303476 
H 	 1.824953 	 0.007176 	 -3.455732 
H 	 5.055356 	 -5.436033 	 -4.330393 
H 	 6.519471 	 -5.831540 	 -4.197527 
H 	 -0.868586 	 6.596376 	 0.653565 
H 	 -1.552612 	 -7.165337 	 1.452037 
H 	 1.048315 	 4.806755 	 -0.417867 
H 	 0.228113 	 4.792319 	 0.873485 
H 	 3.426975 	 -6.842757 	 3.265239 
H 	 2.837901 	 6.570062 	 3.453672 
H 	 7.189687 	 5.321230 	 6.896098 
H 	 6.372417 	 4.290460 	 6.091506 
H 	 -6.386378 	 -3.312208 	 5.888907 
H 	 -5.805544 	 -3.746725 	 4.397573 
H 	 3.263135 	 6.412009 	 5.938389 
H 	 3.398257 	 4.832350 	 6.037819 
H 	 6.176908 	 -6.329753 	 3.971563 
H 	 6.904601 	 -5.017922 	 4.337223 
H 	 -1.367983 	 -3.870015 	 2.761386 
H 	 -1.131285 	 -4.097024 	 1.246648 
H 	 6.901040 	 3.834497 	 -6.767435 
H 	 7.149926 	 2.465775 	 -7.086787 
H 	 0.384935 	 3.041077 	 -5.766903 
H 	 -0.498087 	 1.915844 	 -5.157493 
H 	 2.103810 	 -3.064349 	 -7.156035 
H 	 0.914673 	 -3.825872 	 -6.508698 
H 	 -3.931803 	 -1.300428 	 6.827366 
H 	 -4.196627 	 -2.806147 	 7.067402 
H 	 -2.752382 	 3.791934 	 7.249200 
H 	 -3.296718 	 4.547274 	 -6.416476 
H 	 2.526097 	 -3.093663 	 -3.445191 
H 	 2.999118 	 -1.663438 	 -3.136092 
H 	 -3.940927 	 -4.159168 	 3.000517 
H 	 -4.765737 	 -2.958553 	 2.535525 
H 	 -2.233937 	 3.228220 	 1.561765 
H 	 -1.595363 	 2.700686 	 0.231868 
H 	 0.753189 	 -4.705166 	 -3.622513 
H 	 1.758975 	 -5.820637 	 -3.047170 
H 	 7.138035 	 -1.559370 	 -0.794990 
H 	 -6.486040 	 -1.896332 	 0.044856 
H 	 2.938615 	 -0.946383 	 -6.660883 
H 	 3.643642 	 0.423353 	 -6.324356 
H 	 1.553431 	 -1.463949 	 -0.215807 
H 	 1.522092 	 -1.201058 	 1.318795 
H 	 -6.186576 	 1.742858 	 0.557308 
H 	 -7.106747 	 0.560195 	 0.127499 
H 	 -2.983920 	 4.982417 	 4.135946 
H 	 -1.482612 	 4.830944 	 3.730709 
H 	 2.822312 	 4.219488 	 -6.802772 
H 	 4.307428 	 4.088572 	 -7.129838 
H 	 7.143504 	 -1.787515 	 2.080104 
H 	 6.876944 	 -2.511146 	 3.355461 
H 	 0.564207 	 -1.270061 	 4.654239 
H 	 0.849315 	 -0.700882 	 6.050519 
H 	 -2.076198 	 3.190071 	 4.811305 
H 	 -1.236954 	 2.117217 	 5.106505 
H 	 4.387676 	 -2.228542 	 -1.478338 
H 	 5.001750 	 -1.355047 	 -0.328600 
H 	 -6.001006 	 1.905629 	 -3.161470 
H 	 -6.741638 	 0.642052 	 -2.568132 
H 	 -1.730167 	 6.505094 	 -4.712623 
H 	 -3.224060 	 6.544651 	 -5.234244 
H 	 3.261954 	 -4.203017 	 5.700852 
H 	 3.056328 	 -4.479843 	 4.214040 
H 	 -2.649692 	 0.573469 	 -4.667096 
H 	 -3.365253 	 1.704233 	 -5.528425 
H 	 -1.021081 	 -3.635123 	 5.832351 
H 	 -1.050372 	 -4.536449 	 7.053230 
H 	 3.257644 	 -4.353248 	 -5.872308 
H 	 3.521254 	 -5.644414 	 -6.535187 
H 	 5.603725 	 -4.007463 	 1.637569 
H 	 4.848083 	 -3.574012 	 0.311119 
H 	 -5.448885 	 1.301222 	 5.415465 
H 	 -5.631021 	 -0.125395 	 6.086576 
H 	 7.194350 	 6.649092 	 3.930699 
H 	 5.948169 	 6.269728 	 4.716523 
H 	 -4.712594 	 -5.155561 	 7.018259 
H 	 -3.274078 	 -4.633145 	 7.111169 
H 	 2.285702 	 5.258112 	 -2.532087 
H 	 3.478107 	 4.962734 	 -1.744791 
H 	 -2.907149 	 0.995930 	 1.995416 
H 	 -2.001504 	 -0.283872 	 2.262855 
H 	 -5.802108 	 4.189172 	 3.673813 
H 	 -5.519532 	 3.009492 	 2.713775 
H 	 2.643553 	 1.443660 	 5.227439 
H 	 3.222998 	 1.196978 	 3.856146 
H 	 3.671711 	 3.757491 	 2.246944 
H 	 2.646427 	 3.559363 	 3.357397 
H 	 3.392099 	 -5.202730 	 -2.029726 
H 	 2.862920 	 -6.243339 	 -1.073124 
H 	 -6.936875 	 -7.171969 	 1.424340 
H 	 -6.696178 	 -6.110902 	 2.518548 
H 	 -2.523758 	 7.161388 	 6.156045 
H 	 -3.667171 	 6.278085 	 6.800089 
H 	 -6.196804 	 3.991333 	 -4.754816 
H 	 -5.141218 	 3.004514 	 -4.873054 
H 	 5.976375 	 3.052377 	 -1.354047 
H 	 4.539083 	 2.738732 	 -0.865273 
H 	 -2.498481 	 -5.282191 	 -5.315436 
H 	 -1.551225 	 -6.324028 	 -5.936297 
H 	 7.257162 	 0.661705 	 2.653824 
H 	 -6.992797 	 0.262757 	 4.038688 
H 	 -1.803761 	 -1.127648 	 -0.977923 
H 	 -0.977335 	 0.197057 	 -1.054268 
H 	 -5.904417 	 -4.452156 	 0.716683 
H 	 -5.191337 	 -5.004571 	 -0.520985 
H 	 -6.107721 	 -5.017663 	 -5.404086 
H 	 -7.170660 	 -5.720626 	 -6.354988 
H 	 -4.592692 	 3.697282 	 0.846794 
H 	 -4.089691 	 2.543789 	 0.008327 
H 	 7.236586 	 6.021514 	 -3.877989 
H 	 -6.919404 	 5.371088 	 -2.618389 
H 	 1.071282 	 5.211510 	 4.174380 
H 	 0.173408 	 6.460448 	 3.784450 
H 	 5.550864 	 -0.018692 	 7.221235 
H 	 5.361181 	 -0.603851 	 -6.285915 
H 	 -4.195357 	 -0.717755 	 1.788437 
H 	 -5.606928 	 -0.769269 	 2.215873 
H 	 0.302493 	 6.819231 	 -3.332531 
H 	 -0.853735 	 5.850761 	 -2.902698 
H 	 4.715487 	 2.499616 	 -3.369434 
H 	 5.117544 	 2.280915 	 -4.907741 
H 	 3.247937 	 -2.389985 	 2.505732 
H 	 4.448344 	 -1.426202 	 2.761125 
H 	 4.834076 	 0.917861 	 0.236530 
H 	 4.207983 	 -0.138991 	 1.210953 
H 	 -4.944946 	 -5.124169 	 -3.093872 
H 	 -4.034786 	 -6.332107 	 -3.138914 
H 	 -0.020629 	 -7.265820 	 6.811176 
H 	 0.367775 	 -6.214016 	 5.766071 
H 	 -5.143148 	 6.734321 	 4.427169 
H 	 -6.035494 	 5.855270 	 5.352859 
H 	 -0.281327 	 1.513170 	 2.521018 
H 	 0.077690 	 2.870982 	 3.042691 
H 	 5.711283 	 0.612538 	 -3.532943 
H 	 5.734592 	 -0.319401 	 -2.293075 
H 	 -3.131350 	 -6.553244 	 3.918346 
H 	 -3.995261 	 -6.055418 	 2.813892 
H 	 6.663227 	 -1.660507 	 5.717062 
H 	 6.005876 	 -0.764896 	 4.714619 
H 	 6.186998 	 4.022059 	 1.502167 
H 	 5.838372 	 2.473603 	 1.562255 
H 	 1.192522 	 -0.110343 	 -5.428808 
H 	 0.115053 	 -1.130579 	 -4.906728 
H 	 -3.277865 	 -2.025134 	 -4.645066 
H 	 -2.628129 	 -1.241566 	 -5.697561 
H 	 -1.367450 	 3.712973 	 -3.738599 
H 	 -0.906477 	 3.357387 	 -2.318278 
H 	 4.356243 	 6.695911 	 -2.224656 
H 	 5.748384 	 6.026629 	 -2.419470 
H 	 -1.272938 	 -4.773850 	 -3.043630 
H 	 -1.226789 	 -3.419851 	 -3.891097 
H 	 -1.457903 	 -0.529562 	 6.646746 
H 	 -2.302784 	 0.788723 	 6.751360 
H 	 -3.447789 	 -1.845643 	 3.802085 
H 	 -2.135023 	 -1.762206 	 4.391858 
H 	 -5.665117 	 -7.236608 	 6.253488 
H 	 -6.655624 	 -6.073951 	 6.186846 
H 	 0.645997 	 -6.437005 	 0.314621 
H 	 -0.020410 	 -6.658856 	 -1.079528 
H 	 -4.545927 	 5.417440 	 -3.082530 
H 	 -3.396421 	 4.795527 	 -2.256420 
H 	 -5.354691 	 -7.422335 	 -1.863208 
H 	 -4.858121 	 7.124533 	 -0.497697 
H 	 2.174012 	 4.498910 	 -4.808579 
H 	 3.091630 	 5.732897 	 -5.169070 
H 	 0.293530 	 1.472688 	 -2.621691 
H 	 1.399657 	 1.623755 	 -1.582649 
H 	 -5.444163 	 -7.000126 	 -5.381950 
H 	 -5.837224 	 6.568991 	 -6.172976 
H 	 -6.714396 	 -3.133325 	 -1.887310 
H 	 7.209267 	 -3.284976 	 -3.098596 
H 	 4.501548 	 7.261747 	 1.210701 
H 	 4.886183 	 6.363055 	 -0.020207 
H 	 5.617541 	 7.093666 	 -4.905766 
H 	 5.612514 	 6.011843 	 -6.047916 
H 	 6.274289 	 -7.048309 	 6.845268 
H 	 5.721308 	 -5.588099 	 7.090786 
H 	 1.024042 	 -6.340488 	 -5.378673 
H 	 1.111016 	 7.146199 	 -6.000340 
H 	 -3.436384 	 0.841494 	 -1.864451 
H 	 -2.747684 	 2.170909 	 -2.339465 
H 	 -0.383261 	 4.924240 	 -7.140549 
H 	 0.477233 	 4.785262 	 6.458364 
H 	 -5.399246 	 -0.744956 	 -4.084318 
H 	 -5.891531 	 -2.148894 	 -3.614452 
H 	 -6.873483 	 2.840898 	 -1.612459 
H 	 -7.004253 	 4.009636 	 -0.553839 
H 	 -4.512245 	 -1.631693 	 -0.559745 
H 	 -4.221234 	 -1.465832 	 -2.086040 
H 	 2.850508 	 -2.055525 	 5.761734 
H 	 4.211181 	 -1.816261 	 6.375251 
H 	 -0.761370 	 -2.015204 	 1.857220 
H 	 -0.655152 	 -0.897102 	 0.911375 
H 	 5.918140 	 -1.357809 	 -4.084148 
H 	 4.920951 	 -2.634509 	 -4.410355 
H 	 0.693655 	 1.665579 	 6.956733 
H 	 1.862909 	 0.815877 	 -7.395833 
H 	 -6.908826 	 4.994354 	 2.036259 
H 	 6.754245 	 5.910753 	 1.797782 
H 	 5.467367 	 2.186824 	 5.305948 
H 	 6.910205 	 2.642723 	 4.806192 
H 	 2.505549 	 0.725123 	 0.005819 
H 	 2.358920 	 2.164582 	 0.577286 
H 	 -5.760445 	 5.010242 	 7.219772 
O 	 0.658827 	 -6.412013 	 2.052853 
O 	 -2.150406 	 -6.698735 	 -1.634621 
O 	 -4.267191 	 5.821762 	 0.999776 
O 	 7.392253 	 -2.538016 	 -7.275917 
O 	 -6.066915 	 0.344053 	 -5.745561 
O 	 -2.442699 	 -4.001101 	 -0.137278 
O 	 1.419558 	 -3.757346 	 -1.179127 
O 	 2.615851 	 -3.951841 	 1.690474 
O 	 2.569078 	 0.019998 	 -2.816576 
O 	 5.625901 	 -6.079877 	 -3.858135 
O 	 -1.719442 	 7.028651 	 0.825455 
O 	 0.317287 	 5.296320 	 0.036522 
O 	 3.042184 	 7.262108 	 2.796110 
O 	 6.153699 	 5.113844 	 6.557917 
O 	 -6.614815 	 -3.487142 	 4.951459 
O 	 3.132425 	 5.574698 	 5.447767 
O 	 6.406408 	 -5.439624 	 3.579489 
O 	 -0.666555 	 -3.792982 	 2.071641 
O 	 7.059445 	 3.004434 	 -6.230428 
O 	 0.063498 	 2.685301 	 -4.940339 
O 	 1.730698 	 -3.353227 	 -6.290291 
O 	 -4.628285 	 -1.927572 	 7.187449 
O 	 -3.551078 	 3.888200 	 -7.073023 
O 	 3.333331 	 -2.565705 	 -3.316998 
O 	 -4.872038 	 -3.871347 	 2.874104 
O 	 -1.370744 	 3.016469 	 1.130740 
O 	 1.220507 	 -5.559136 	 -3.836238 
O 	 -6.790198 	 -1.436598 	 -0.756769 
O 	 2.761294 	 -0.027381 	 -6.285130 
O 	 2.059664 	 -1.089316 	 0.527539 
O 	 -7.037622 	 1.330055 	 0.735240 
O 	 -2.373655 	 4.467576 	 3.575989 
O 	 3.442164 	 3.646193 	 -7.309315 
O 	 6.658750 	 -2.586887 	 2.397436 
O 	 0.520922 	 -1.508796 	 5.598714 
O 	 -2.035039 	 2.526144 	 5.540888 
O 	 5.208157 	 -2.048135 	 -0.990443 
O 	 -5.943753 	 1.189908 	 -2.500495 
O 	 -2.285345 	 6.407506 	 -5.520447 
O 	 2.811957 	 -4.816725 	 5.098254 
O 	 -2.756864 	 1.525498 	 -4.787577 
O 	 -1.599135 	 -3.873710 	 6.599603 
O 	 4.019692 	 -4.893863 	 -6.145969 
O 	 5.021536 	 -4.331629 	 0.911095 
O 	 -5.438285 	 0.324769 	 5.238768 
O 	 6.199301 	 6.753492 	 3.888343 
O 	 -4.107344 	 -4.616019 	 -7.313897 
O 	 2.524036 	 4.710344 	 -1.770027 
O 	 -2.899380 	 0.145430 	 2.408957 
O 	 -6.269386 	 3.530851 	 3.111766 
O 	 3.361301 	 1.762357 	 4.631417 
O 	 2.707006 	 3.852163 	 2.431393 
O 	 3.604950 	 -6.097859 	 -1.715228 
O 	 -6.222741 	 -6.669841 	 1.877171 
O 	 -3.278690 	 6.557667 	 5.948697 
O 	 -5.529942 	 3.562299 	 -4.164522 
O 	 5.255508 	 2.375308 	 -1.419049 
O 	 -1.598454 	 -5.405176 	 -5.664640 
O 	 7.426264 	 -0.094955 	 3.265567 
O 	 -0.902037 	 -0.750128 	 -0.829159 
O 	 -5.769123 	 -4.264053 	 -0.241793 
O 	 -6.925094 	 -5.561893 	 -5.411461 
O 	 -4.414037 	 2.738917 	 0.910207 
O 	 -7.269946 	 6.213042 	 -2.993533 
O 	 0.223427 	 5.496831 	 3.824732 
O 	 5.728627 	 0.212230 	 -6.735363 
O 	 -4.990764 	 -1.333400 	 1.703816 
O 	 -0.659549 	 6.723813 	 -3.342395 
O 	 4.474302 	 2.065777 	 -4.206779 
O 	 3.497608 	 -1.527067 	 2.952452 
O 	 5.008242 	 0.064000 	 0.682616 
O 	 -4.436637 	 -5.692478 	 -3.714524 
O 	 0.024384 	 -7.079143 	 5.854539 
O 	 -5.768032 	 5.975395 	 4.340061 
O 	 -0.016867 	 1.952878 	 3.362691 
O 	 6.253067 	 -0.085658 	 -3.095765 
O 	 -3.054007 	 -6.134243 	 3.046015 
O 	 5.777677 	 -1.406218 	 5.411753 
O 	 5.466294 	 3.358029 	 1.394574 
O 	 0.447213 	 -0.223689 	 -4.814383 
O 	 -2.397211 	 -1.683784 	 -4.865852 
O 	 -1.400602 	 4.052035 	 -2.818043 
O 	 4.876170 	 5.923831 	 -1.952833 
O 	 -1.109177 	 -3.819912 	 -2.985559 
O 	 -2.253414 	 -0.135549 	 7.077682 
O 	 -2.674591 	 -2.410884 	 3.891550 
O 	 -5.722423 	 -6.303170 	 5.941218 
O 	 0.765824 	 -6.282487 	 -0.663172 
O 	 -4.157517 	 5.443307 	 -2.172096 
O 	 -5.394275 	 -7.070320 	 -0.947270 
O 	 2.175309 	 5.472799 	 -4.872503 
O 	 0.472365 	 1.867313 	 -1.734301 
O 	 -5.243034 	 6.959478 	 -5.480438 
O 	 -6.952606 	 -3.730841 	 -2.642879 
O 	 5.222001 	 7.060363 	 0.594265 
O 	 5.410458 	 6.155191 	 -5.108422 
O 	 6.551931 	 -6.109695 	 7.112028 
O 	 1.117601 	 -6.825748 	 -6.197765 
O 	 -2.866118 	 1.577601 	 -1.569894 
O 	 0.465059 	 4.560813 	 -7.492100 
O 	 -5.317553 	 -1.715855 	 -4.267331 
O 	 -7.215103 	 3.755061 	 -1.486259 
O 	 -3.805872 	 -1.505565 	 -1.214032 
O 	 3.330277 	 -2.240281 	 6.612615 
O 	 -0.492045 	 -1.072745 	 1.857914 
O 	 5.712429 	 -2.122437 	 -4.679673 
O 	 1.343812 	 1.021500 	 6.695933 
O 	 7.466871 	 5.457943 	 1.342033 
O 	 6.424032 	 2.264296 	 5.555430 
O 	 2.846649 	 1.627373 	 -0.073730 
O 	 -6.483043 	 5.667176 	 7.057453 
K 	 6.692287 	 -6.004503 	 -0.922532 
