333
conformation = 40
H 	 1.160393 	 -6.867767 	 3.013276 
H 	 -0.015462 	 -5.854087 	 2.663828 
H 	 -2.025212 	 -6.907628 	 -0.645450 
H 	 -1.260579 	 -6.313901 	 -1.725948 
H 	 -4.400208 	 5.569862 	 2.713435 
H 	 -3.829072 	 6.283221 	 1.485961 
H 	 -6.234434 	 -3.497895 	 -6.929147 
H 	 -7.323597 	 -2.650169 	 -6.130725 
H 	 -5.978560 	 0.467032 	 -6.934837 
H 	 -4.628428 	 -0.123155 	 -6.437617 
H 	 -2.239835 	 -4.498421 	 -0.222495 
H 	 -2.449800 	 -3.040171 	 -0.585540 
H 	 0.624945 	 -3.142011 	 -1.625771 
H 	 1.523731 	 -3.329867 	 -0.411176 
H 	 2.931294 	 -3.824659 	 1.775413 
H 	 1.419020 	 -3.526277 	 2.027753 
H 	 2.478934 	 0.723848 	 -3.300263 
H 	 1.567180 	 -0.454838 	 -3.539429 
H 	 4.932293 	 -5.659954 	 -4.238279 
H 	 6.401771 	 -5.931302 	 -4.214102 
H 	 -1.372620 	 6.068132 	 0.839586 
H 	 -1.929448 	 -7.500218 	 1.616012 
H 	 0.584335 	 5.298565 	 1.643205 
H 	 -0.423783 	 4.109827 	 1.438712 
H 	 3.612390 	 -6.350446 	 3.479215 
H 	 3.539166 	 7.083810 	 3.851488 
H 	 7.120322 	 5.469364 	 6.965545 
H 	 6.491566 	 3.997449 	 6.445079 
H 	 7.348428 	 -3.536917 	 6.220551 
H 	 -6.619680 	 -3.286596 	 4.948994 
H 	 2.300409 	 6.628389 	 6.414707 
H 	 3.237949 	 5.358673 	 6.145175 
H 	 5.748449 	 -6.660814 	 4.569912 
H 	 6.305472 	 -5.190132 	 4.587532 
H 	 -1.311769 	 -3.423735 	 3.296360 
H 	 -1.307192 	 -3.793458 	 1.790946 
H 	 6.263563 	 3.840278 	 -6.106664 
H 	 6.787199 	 2.418649 	 -6.087154 
H 	 0.582231 	 3.781582 	 -4.905745 
H 	 -0.324408 	 2.524820 	 -4.667469 
H 	 1.421916 	 -3.289406 	 -5.616951 
H 	 0.120301 	 -3.767546 	 -5.036690 
H 	 -3.448310 	 -1.263726 	 6.907924 
H 	 -4.622148 	 -2.340185 	 6.596846 
H 	 -3.857655 	 3.343929 	 7.186475 
H 	 -3.096905 	 4.311262 	 -6.726405 
H 	 2.928872 	 -2.634242 	 -3.735584 
H 	 3.567437 	 -1.373529 	 -3.177169 
H 	 -3.740955 	 -3.096075 	 4.022282 
H 	 -4.902304 	 -3.195326 	 3.047405 
H 	 -2.121145 	 2.677503 	 1.778034 
H 	 -1.581858 	 2.520621 	 0.400088 
H 	 0.283115 	 -6.379529 	 -4.547891 
H 	 1.525907 	 -5.870374 	 -3.846400 
H 	 7.203013 	 -1.425953 	 -0.387563 
H 	 -6.394439 	 -1.698439 	 -1.118215 
H 	 4.213518 	 -0.394663 	 -6.750094 
H 	 3.883637 	 0.596177 	 -5.643563 
H 	 2.644154 	 -0.806558 	 -0.394108 
H 	 1.702873 	 -0.617733 	 0.771627 
H 	 -5.455363 	 1.367104 	 0.524994 
H 	 -6.636325 	 0.518760 	 -0.102594 
H 	 -3.612541 	 4.671834 	 4.417884 
H 	 -2.266174 	 4.752196 	 3.713881 
H 	 3.453222 	 3.899378 	 -6.582415 
H 	 4.692069 	 3.781422 	 -7.400447 
H 	 -7.140961 	 -1.743954 	 2.370609 
H 	 -6.860516 	 -2.831344 	 1.366650 
H 	 0.854741 	 -0.891443 	 4.435956 
H 	 1.137799 	 0.017339 	 5.623089 
H 	 -2.838411 	 2.135369 	 5.104844 
H 	 -1.262784 	 2.285691 	 5.351110 
H 	 4.626514 	 -2.650454 	 -1.887018 
H 	 4.854793 	 -2.239253 	 -0.417013 
H 	 -5.337515 	 2.241857 	 -3.379069 
H 	 -6.378205 	 1.153149 	 -3.113493 
H 	 -1.413479 	 5.381732 	 -4.951250 
H 	 -2.815003 	 6.098037 	 -5.127112 
H 	 2.772808 	 -4.072902 	 4.997168 
H 	 2.349459 	 -4.462871 	 3.520893 
H 	 -2.266556 	 0.962436 	 -5.101883 
H 	 -3.483046 	 1.692558 	 -5.737082 
H 	 -0.329786 	 -3.257239 	 7.362259 
H 	 -1.631883 	 -4.082019 	 6.967631 
H 	 3.606496 	 -4.061452 	 -6.983928 
H 	 3.383941 	 -5.595624 	 -6.722547 
H 	 5.206134 	 -5.180048 	 2.398693 
H 	 6.051213 	 -4.015473 	 1.941684 
H 	 -5.487968 	 1.293194 	 5.876570 
H 	 -5.336885 	 -0.256933 	 5.755433 
H 	 6.872017 	 5.815544 	 3.488488 
H 	 5.960414 	 5.777690 	 4.705469 
H 	 -4.773098 	 -5.155736 	 6.795603 
H 	 -4.161793 	 -4.883245 	 -6.824563 
H 	 1.700327 	 3.782638 	 -1.910912 
H 	 2.864196 	 4.719316 	 -1.375112 
H 	 -3.228895 	 0.345826 	 3.077138 
H 	 -2.031933 	 -0.321424 	 2.151209 
H 	 -5.954346 	 3.828195 	 3.946962 
H 	 -5.997726 	 3.285054 	 2.534283 
H 	 2.997577 	 1.470204 	 4.975384 
H 	 3.961523 	 0.460442 	 4.234124 
H 	 3.155615 	 4.665861 	 2.046616 
H 	 3.484684 	 3.411448 	 2.926472 
H 	 2.909990 	 -5.128289 	 -1.499351 
H 	 2.416069 	 -6.486047 	 -1.749662 
H 	 -6.239672 	 -6.959545 	 2.719207 
H 	 7.340873 	 -6.215946 	 2.539250 
H 	 -1.804884 	 7.223769 	 6.303300 
H 	 -3.015388 	 6.519995 	 6.999135 
H 	 -6.433494 	 3.607792 	 -5.057703 
H 	 -5.017425 	 4.126391 	 -5.404421 
H 	 6.251871 	 2.695535 	 -1.783838 
H 	 4.940373 	 2.327904 	 -0.963598 
H 	 -2.793360 	 -5.581328 	 -4.944044 
H 	 -2.442985 	 -6.704978 	 -5.925067 
H 	 -6.827402 	 0.873030 	 2.955497 
H 	 -7.163233 	 0.196448 	 4.195183 
H 	 -1.438720 	 -1.291436 	 -1.464964 
H 	 -0.558897 	 -0.080105 	 -1.311141 
H 	 -5.201685 	 -3.268869 	 0.359124 
H 	 -5.535759 	 -4.735099 	 -0.187383 
H 	 -6.568941 	 -5.195747 	 -5.307118 
H 	 -7.045422 	 -6.261675 	 -6.390091 
H 	 -4.375421 	 4.159759 	 0.846555 
H 	 -3.853580 	 2.850299 	 0.185498 
H 	 -7.260861 	 6.458546 	 -4.286844 
H 	 -7.083101 	 5.327506 	 -3.234034 
H 	 1.291050 	 4.982618 	 4.469749 
H 	 -0.105781 	 5.364072 	 5.015480 
H 	 6.724580 	 0.372417 	 7.131217 
H 	 6.716924 	 0.014897 	 -6.261117 
H 	 -4.078860 	 -1.030670 	 1.639081 
H 	 -5.495719 	 -0.897589 	 0.933740 
H 	 0.513762 	 6.217842 	 -2.591973 
H 	 -1.061789 	 6.082470 	 -2.507226 
H 	 4.283366 	 2.517098 	 -3.217116 
H 	 3.464359 	 3.199246 	 -4.399863 
H 	 3.601686 	 -1.410187 	 2.519415 
H 	 4.818556 	 -2.043075 	 3.030026 
H 	 4.519728 	 0.229324 	 1.494889 
H 	 6.002505 	 -0.261153 	 1.685940 
H 	 -4.861092 	 -4.508295 	 -3.279194 
H 	 -3.856287 	 -5.645229 	 -2.918110 
H 	 0.308782 	 -6.785896 	 6.470693 
H 	 -0.110514 	 -6.874379 	 4.893930 
H 	 -5.396921 	 6.402166 	 4.304096 
H 	 -6.111054 	 5.812980 	 5.522378 
H 	 -0.164167 	 2.010395 	 3.219732 
H 	 0.697694 	 2.097263 	 4.437265 
H 	 5.872828 	 0.926338 	 -3.642658 
H 	 6.253732 	 -0.259047 	 -2.699423 
H 	 -2.803745 	 -6.650447 	 4.286874 
H 	 -3.478718 	 -5.735337 	 3.330121 
H 	 6.525597 	 -1.952244 	 5.505474 
H 	 5.296562 	 -1.047398 	 5.159894 
H 	 6.235310 	 3.546357 	 1.605692 
H 	 5.825642 	 2.088844 	 1.403576 
H 	 1.461737 	 -0.320498 	 -6.055301 
H 	 0.392735 	 -0.577276 	 -4.919298 
H 	 -3.029545 	 -1.802571 	 -5.029327 
H 	 -1.711595 	 -1.596476 	 -5.749096 
H 	 -2.017092 	 3.867724 	 -3.030282 
H 	 -1.315197 	 4.029114 	 -1.684963 
H 	 4.629710 	 6.940224 	 -2.013767 
H 	 5.612435 	 5.799126 	 -2.023553 
H 	 -1.772067 	 -3.767053 	 -2.837449 
H 	 -1.166327 	 -2.754527 	 -3.808231 
H 	 -0.924898 	 -0.234528 	 7.175567 
H 	 -2.000110 	 0.780561 	 6.654127 
H 	 -2.666943 	 -1.355140 	 5.075602 
H 	 -2.050468 	 -2.676204 	 5.356530 
H 	 -5.946421 	 -6.985152 	 6.135009 
H 	 -6.267385 	 -5.932535 	 4.996082 
H 	 1.081851 	 -6.777985 	 0.352238 
H 	 0.328832 	 7.221654 	 -0.681492 
H 	 -4.726297 	 5.220319 	 -2.785345 
H 	 -3.454300 	 5.317395 	 -1.958649 
H 	 -4.893658 	 -7.102698 	 -1.287140 
H 	 -5.518659 	 -7.351484 	 0.120654 
H 	 2.671354 	 4.834869 	 -3.728265 
H 	 3.361614 	 5.594414 	 -4.929867 
H 	 0.254075 	 1.883180 	 -2.225798 
H 	 0.754821 	 2.425413 	 -0.791918 
H 	 -5.193635 	 -7.173335 	 -4.927450 
H 	 -4.925020 	 7.053793 	 -6.223263 
H 	 -6.815321 	 -3.183198 	 -2.664081 
H 	 7.103135 	 -3.288632 	 -3.819944 
H 	 4.687092 	 7.212929 	 1.899697 
H 	 4.910997 	 6.839568 	 0.336497 
H 	 5.402335 	 7.262133 	 -5.262373 
H 	 5.517154 	 6.528318 	 -6.712325 
H 	 6.311156 	 -7.025143 	 7.090107 
H 	 5.455687 	 -5.711076 	 7.159352 
H 	 1.696006 	 -6.804650 	 -6.054007 
H 	 3.084776 	 -7.451220 	 -6.400275 
H 	 -3.107373 	 0.762143 	 -1.418381 
H 	 -3.620937 	 2.145065 	 -1.832352 
H 	 0.365924 	 5.470048 	 -6.656492 
H 	 -0.815185 	 4.795937 	 -7.462856 
H 	 -5.366038 	 -1.011732 	 -4.616836 
H 	 -5.492354 	 -2.554364 	 -4.518938 
H 	 -6.158667 	 3.432481 	 -0.695007 
H 	 7.458575 	 4.316886 	 -0.586402 
H 	 -3.962724 	 -1.281232 	 -0.791628 
H 	 -4.070500 	 -1.223210 	 -2.365397 
H 	 2.317929 	 -1.855880 	 6.232495 
H 	 3.765430 	 -2.492544 	 6.280830 
H 	 -0.367592 	 -2.009598 	 1.901354 
H 	 -0.455797 	 -1.265279 	 0.484168 
H 	 6.093059 	 -1.378985 	 -4.409234 
H 	 5.263451 	 -2.610859 	 -4.590207 
H 	 1.709930 	 2.708205 	 6.516479 
H 	 2.470193 	 1.674294 	 7.261699 
H 	 -6.675867 	 5.975773 	 1.468226 
H 	 6.628250 	 6.076076 	 1.403629 
H 	 5.455341 	 2.239525 	 4.855050 
H 	 6.663987 	 2.906247 	 4.071498 
H 	 2.635585 	 1.629036 	 0.426814 
H 	 2.037503 	 2.932663 	 1.069637 
H 	 -6.122241 	 6.006671 	 7.378528 
O 	 0.212428 	 -6.826289 	 2.695195 
O 	 -2.106898 	 -6.137905 	 -1.281578 
O 	 -4.683026 	 5.907438 	 1.866557 
O 	 -6.978922 	 -2.845085 	 -7.020177 
O 	 -5.241161 	 0.614436 	 -6.335689 
O 	 -2.370237 	 -3.620545 	 0.191484 
O 	 1.559634 	 -3.246846 	 -1.369101 
O 	 2.033553 	 -4.207173 	 1.752756 
O 	 2.126872 	 -0.056589 	 -2.844568 
O 	 5.625029 	 -6.110585 	 -3.669668 
O 	 -2.092564 	 6.771061 	 0.887260 
O 	 0.059567 	 4.832811 	 0.955781 
O 	 3.344551 	 -7.218875 	 3.135735 
O 	 6.165439 	 4.797755 	 6.906370 
O 	 7.444134 	 -3.675828 	 5.260858 
O 	 2.751895 	 6.079118 	 5.725149 
O 	 6.052072 	 -5.907057 	 3.987981 
O 	 -0.763475 	 -3.851661 	 2.592101 
O 	 6.819649 	 3.244776 	 -5.591831 
O 	 0.134691 	 3.267898 	 -4.195081 
O 	 0.464795 	 -3.089513 	 -5.626034 
O 	 -4.421802 	 -1.469205 	 6.993041 
O 	 -3.985792 	 3.999846 	 -7.011445 
O 	 3.763447 	 -2.295229 	 -3.407227 
O 	 -4.485063 	 -3.698474 	 3.799871 
O 	 -1.262973 	 2.592320 	 1.325334 
O 	 0.943420 	 -5.708861 	 -4.628782 
O 	 -7.169697 	 -1.119188 	 -1.147273 
O 	 3.494584 	 -0.050159 	 -6.226404 
O 	 2.667334 	 -0.706155 	 0.591273 
O 	 -6.382978 	 1.084918 	 0.662313 
O 	 -3.158825 	 4.373405 	 3.622826 
O 	 3.760251 	 3.490514 	 -7.395867 
O 	 7.300624 	 -2.262396 	 1.681211 
O 	 1.046506 	 -0.938327 	 5.384097 
O 	 -2.168997 	 2.240062 	 5.769486 
O 	 5.258972 	 -2.728935 	 -1.166367 
O 	 -5.412327 	 1.317132 	 -3.052556 
O 	 -1.972693 	 5.875413 	 -5.605004 
O 	 2.600670 	 -4.823675 	 4.388587 
O 	 -2.722774 	 1.821377 	 -5.120506 
O 	 -1.231236 	 -3.187759 	 6.977652 
O 	 4.016421 	 -4.878889 	 -6.603357 
O 	 5.262235 	 -4.529029 	 1.651850 
O 	 -5.831778 	 0.505138 	 5.377369 
O 	 6.131332 	 6.278177 	 3.890903 
O 	 -4.762659 	 -4.412805 	 -7.446243 
O 	 2.420420 	 4.363579 	 -2.190194 
O 	 -2.986859 	 -0.042385 	 2.203880 
O 	 -6.219921 	 3.032259 	 3.465389 
O 	 3.625057 	 1.395220 	 4.246746 
O 	 2.767435 	 4.067704 	 2.705047 
O 	 3.224596 	 -5.960136 	 -1.862071 
O 	 -6.724381 	 -6.437267 	 2.047138 
O 	 -2.654574 	 6.763002 	 6.146276 
O 	 -5.632719 	 4.072046 	 -4.670085 
O 	 5.303392 	 2.823674 	 -1.708265 
O 	 -2.128290 	 -5.819731 	 -5.634721 
O 	 -7.273145 	 0.036760 	 3.215772 
O 	 -0.528982 	 -1.046474 	 -1.222770 
O 	 -5.907958 	 -3.838434 	 -0.039653 
O 	 -6.754812 	 -6.143197 	 -5.457223 
O 	 -4.676912 	 3.309143 	 0.430202 
O 	 -7.302988 	 6.263944 	 -3.329089 
O 	 0.334195 	 4.798338 	 4.339910 
O 	 6.986523 	 0.704938 	 -6.900947 
O 	 -4.793578 	 -1.551975 	 1.157695 
O 	 -0.312681 	 6.683094 	 -2.722023 
O 	 3.743534 	 2.322460 	 -4.035382 
O 	 4.043792 	 -1.571846 	 3.384389 
O 	 5.321001 	 -0.038040 	 1.036801 
O 	 -4.387118 	 -5.297556 	 -3.608209 
O 	 -0.258435 	 -7.264222 	 5.781292 
O 	 -5.722247 	 5.542547 	 4.649585 
O 	 -0.011149 	 1.537640 	 4.060763 
O 	 6.386241 	 0.100743 	 -3.602905 
O 	 -3.219632 	 -6.695304 	 3.400671 
O 	 5.844652 	 -1.367174 	 5.893261 
O 	 5.488008 	 2.921773 	 1.803169 
O 	 0.643797 	 0.063121 	 -5.624555 
O 	 -2.248491 	 -1.185390 	 -5.047869 
O 	 -2.084934 	 4.385065 	 -2.188584 
O 	 4.720779 	 6.038387 	 -1.644764 
O 	 -1.007074 	 -3.199903 	 -2.962141 
O 	 -1.805781 	 -0.168096 	 6.759526 
O 	 -2.422965 	 -2.155266 	 4.592146 
O 	 -5.518273 	 -6.400113 	 5.417981 
O 	 1.078450 	 -7.076318 	 -0.572700 
O 	 -4.332043 	 5.710620 	 -2.042232 
O 	 -5.380716 	 -6.669265 	 -0.574261 
O 	 2.643221 	 4.956428 	 -4.728844 
O 	 -0.007472 	 2.432027 	 -1.443033 
O 	 -4.459862 	 7.230376 	 -5.397125 
O 	 -7.061137 	 -3.790344 	 -3.363722 
O 	 5.325858 	 7.225843 	 1.139327 
O 	 4.920490 	 6.896189 	 -6.019647 
O 	 6.374061 	 -6.054361 	 6.904576 
O 	 2.211839 	 -7.142989 	 -6.791790 
O 	 -3.256523 	 1.665464 	 -1.068357 
O 	 0.056546 	 4.652465 	 -7.078507 
O 	 -4.918849 	 -1.820471 	 -4.301288 
O 	 -6.928746 	 3.785321 	 -1.207662 
O 	 -3.432320 	 -1.285418 	 -1.624764 
O 	 2.860342 	 -2.572932 	 6.660463 
O 	 -0.207961 	 -1.157590 	 1.453550 
O 	 6.183394 	 -2.295375 	 -4.781821 
O 	 1.792799 	 1.743413 	 6.538683 
O 	 7.405974 	 5.434119 	 1.350771 
O 	 6.268672 	 2.796555 	 4.940348 
O 	 1.849408 	 2.180527 	 0.526452 
O 	 -6.820422 	 6.593569 	 7.077204 
K 	 6.486767 	 -5.462009 	 -0.832603 
