333
conformation = 13
H 	 1.525555 	 -6.820782 	 2.339290 
H 	 0.710528 	 -5.451538 	 2.248764 
H 	 -2.177496 	 -7.354217 	 -0.741406 
H 	 -1.728122 	 -7.304817 	 -2.240275 
H 	 -5.045032 	 6.230635 	 1.396338 
H 	 -3.465231 	 6.163347 	 1.423382 
H 	 -6.610239 	 -2.349898 	 -7.007797 
H 	 6.811149 	 -2.389170 	 -6.447452 
H 	 -6.987216 	 0.804721 	 -5.618975 
H 	 -6.448871 	 -0.511316 	 -6.066830 
H 	 -2.658561 	 -4.784034 	 -0.756368 
H 	 -3.256120 	 -3.492868 	 -0.038989 
H 	 0.681308 	 -3.355898 	 -1.761945 
H 	 0.992073 	 -4.603742 	 -0.900604 
H 	 3.469503 	 -4.180487 	 1.379246 
H 	 2.158333 	 -3.366515 	 1.142253 
H 	 3.351840 	 0.458160 	 -3.090125 
H 	 1.927081 	 -0.086970 	 -3.498224 
H 	 4.999839 	 -5.685363 	 -4.437806 
H 	 6.523195 	 -5.781200 	 -4.111273 
H 	 -0.886707 	 6.500647 	 0.818079 
H 	 -1.480506 	 -7.137571 	 1.419947 
H 	 1.079951 	 4.883222 	 -0.321970 
H 	 0.065309 	 4.788322 	 0.866329 
H 	 3.366351 	 -7.050684 	 3.544910 
H 	 2.994205 	 6.406795 	 3.345896 
H 	 7.148433 	 5.139427 	 6.918397 
H 	 6.016049 	 4.420449 	 5.973703 
H 	 -6.075930 	 -3.524731 	 5.859903 
H 	 -5.903292 	 -3.693480 	 4.319345 
H 	 3.176830 	 6.338814 	 5.936867 
H 	 3.366211 	 4.848668 	 6.207692 
H 	 6.207921 	 -6.412315 	 3.805744 
H 	 6.759378 	 -4.968086 	 4.355568 
H 	 -1.314491 	 -3.967024 	 2.775009 
H 	 -1.155225 	 -4.082003 	 1.256521 
H 	 6.906974 	 3.870721 	 -6.262783 
H 	 7.148933 	 2.452705 	 -7.063528 
H 	 0.206543 	 2.945264 	 -5.816923 
H 	 -0.428973 	 1.808956 	 -5.055298 
H 	 2.177505 	 -3.059519 	 -7.078897 
H 	 1.011137 	 -3.896841 	 -6.461295 
H 	 -4.099860 	 -1.168975 	 7.055855 
H 	 -4.182816 	 -2.775107 	 7.074373 
H 	 -2.829075 	 4.013631 	 7.280208 
H 	 -3.443391 	 4.483437 	 -6.288612 
H 	 2.591854 	 -3.225095 	 -3.391656 
H 	 3.009551 	 -1.713455 	 -3.239806 
H 	 -4.012173 	 -4.130103 	 3.216284 
H 	 -4.825862 	 -3.023385 	 2.407512 
H 	 -2.017873 	 3.560113 	 1.507828 
H 	 -1.555848 	 2.714681 	 0.265594 
H 	 0.793068 	 -4.785402 	 -3.438494 
H 	 1.784791 	 -5.918609 	 -2.951210 
H 	 7.155578 	 -1.714560 	 -0.589930 
H 	 -6.439374 	 -1.885435 	 0.193913 
H 	 2.737430 	 -0.966632 	 -6.751428 
H 	 3.587025 	 0.277658 	 -6.260589 
H 	 1.620271 	 -1.527931 	 -0.219577 
H 	 1.406038 	 -1.262935 	 1.247472 
H 	 -6.219048 	 1.745393 	 0.628223 
H 	 -7.106001 	 0.619037 	 0.102912 
H 	 -2.997061 	 4.925477 	 4.125519 
H 	 -1.578813 	 4.945742 	 3.577875 
H 	 2.769270 	 4.311249 	 -6.855593 
H 	 4.326104 	 3.932259 	 -7.066408 
H 	 7.118191 	 -1.879103 	 2.042729 
H 	 6.948422 	 -2.800837 	 3.306674 
H 	 0.495236 	 -1.470470 	 4.626514 
H 	 0.708932 	 -0.703428 	 5.931523 
H 	 -2.341195 	 2.979226 	 4.812330 
H 	 -1.258182 	 1.918374 	 5.264796 
H 	 4.207947 	 -2.124943 	 -1.300196 
H 	 5.060842 	 -1.428132 	 -0.241777 
H 	 -5.825075 	 1.868921 	 -2.973093 
H 	 -6.766178 	 0.741533 	 -2.638970 
H 	 -1.784223 	 6.637225 	 -4.688043 
H 	 -3.261723 	 6.619026 	 -5.287141 
H 	 3.204631 	 -4.163646 	 5.749487 
H 	 3.201691 	 -4.737712 	 4.323794 
H 	 -2.531862 	 0.478810 	 -4.659622 
H 	 -3.275520 	 1.406854 	 -5.516178 
H 	 -1.096777 	 -3.736480 	 5.747833 
H 	 -1.182072 	 -4.717959 	 7.040920 
H 	 3.219440 	 -4.360470 	 -5.942375 
H 	 3.573050 	 -5.858233 	 -6.131136 
H 	 5.726597 	 -3.877302 	 1.406512 
H 	 4.917607 	 -3.768753 	 0.192620 
H 	 -5.155305 	 1.217624 	 5.513377 
H 	 -5.751403 	 -0.095307 	 6.076289 
H 	 7.179245 	 6.866525 	 3.866052 
H 	 6.030919 	 6.164305 	 4.636080 
H 	 -4.690605 	 -5.393334 	 7.381469 
H 	 -3.354885 	 -4.706388 	 7.087553 
H 	 2.350923 	 4.896551 	 -2.693262 
H 	 3.500013 	 4.862324 	 -1.619472 
H 	 -2.972265 	 1.029914 	 2.264618 
H 	 -1.981069 	 -0.172548 	 2.293984 
H 	 -5.825531 	 4.285675 	 3.554435 
H 	 -5.562424 	 2.914214 	 2.779711 
H 	 2.743066 	 1.358929 	 5.436506 
H 	 3.232805 	 1.194258 	 3.933478 
H 	 3.631566 	 3.842874 	 2.185702 
H 	 2.703754 	 3.365495 	 3.306122 
H 	 3.549093 	 -5.180794 	 -1.846727 
H 	 2.844133 	 -6.262188 	 -0.945398 
H 	 -6.831506 	 -7.386279 	 1.646078 
H 	 -6.662329 	 -6.264668 	 2.638777 
H 	 -2.500197 	 7.110651 	 6.331958 
H 	 -3.681488 	 6.306105 	 6.872113 
H 	 -6.308229 	 3.875786 	 -4.546450 
H 	 -5.089481 	 2.883049 	 -4.695259 
H 	 5.941920 	 2.894061 	 -1.079240 
H 	 4.363557 	 2.763444 	 -1.063004 
H 	 -2.539873 	 -5.544789 	 -5.391868 
H 	 -1.419409 	 -6.359622 	 -5.900585 
H 	 7.445493 	 0.481720 	 2.583426 
H 	 -6.893231 	 0.248049 	 4.009840 
H 	 -1.823888 	 -1.077268 	 -0.859494 
H 	 -0.874363 	 0.141553 	 -1.022498 
H 	 -5.646340 	 -4.704045 	 0.739254 
H 	 -5.209469 	 -5.056553 	 -0.655430 
H 	 -6.020053 	 -5.004879 	 -5.540535 
H 	 -7.280960 	 -5.702744 	 -6.194682 
H 	 -4.541688 	 3.645824 	 0.931072 
H 	 -3.824756 	 2.488250 	 0.181811 
H 	 7.304033 	 5.963652 	 -3.789350 
H 	 -7.041596 	 5.318908 	 -2.522581 
H 	 1.118602 	 5.393646 	 4.279311 
H 	 0.317712 	 6.452101 	 3.717275 
H 	 5.670880 	 -0.111904 	 7.340786 
H 	 5.629305 	 -0.669207 	 -6.052770 
H 	 -4.277571 	 -0.728886 	 2.011459 
H 	 -5.893948 	 -0.956215 	 2.156501 
H 	 0.312217 	 6.831595 	 -3.359194 
H 	 -0.710644 	 5.748108 	 -2.930801 
H 	 4.783561 	 2.427836 	 -3.281202 
H 	 5.190181 	 2.573445 	 -4.713418 
H 	 3.388805 	 -2.424307 	 2.588520 
H 	 4.422305 	 -1.503964 	 3.229983 
H 	 4.850010 	 0.743398 	 0.208036 
H 	 4.197332 	 -0.014033 	 1.353321 
H 	 -5.119418 	 -5.187841 	 -3.135007 
H 	 -3.994605 	 -6.223550 	 -3.087771 
H 	 0.066549 	 -7.216983 	 6.872182 
H 	 0.576847 	 -6.319746 	 5.864012 
H 	 -5.233337 	 6.715858 	 4.470304 
H 	 -6.032783 	 5.638767 	 5.408796 
H 	 -0.379795 	 1.359937 	 2.728655 
H 	 0.212083 	 2.776725 	 2.952403 
H 	 5.672765 	 0.588902 	 -3.410527 
H 	 5.795922 	 -0.427473 	 -2.212403 
H 	 -2.988263 	 -6.786769 	 3.821481 
H 	 -3.962257 	 -6.226429 	 2.743815 
H 	 6.712097 	 -1.807499 	 5.647891 
H 	 5.994824 	 -0.762228 	 4.685572 
H 	 6.218292 	 3.978401 	 1.554092 
H 	 5.886444 	 2.501964 	 1.535484 
H 	 1.114334 	 -0.239481 	 -5.300449 
H 	 -0.135845 	 -1.051278 	 -4.862195 
H 	 -3.258703 	 -2.062895 	 -4.540362 
H 	 -2.588925 	 -1.419763 	 -5.770651 
H 	 -1.198986 	 3.792046 	 -3.733761 
H 	 -0.679281 	 3.471906 	 -2.350272 
H 	 4.414406 	 6.787489 	 -2.124015 
H 	 5.723947 	 5.966126 	 -2.353093 
H 	 -1.072525 	 -4.841267 	 -2.881047 
H 	 -1.609362 	 -3.699606 	 -3.729065 
H 	 -1.527918 	 -0.628836 	 6.951482 
H 	 -2.376184 	 0.640585 	 6.632799 
H 	 -3.581757 	 -2.027339 	 4.004967 
H 	 -2.053470 	 -1.803090 	 4.307938 
H 	 -5.546209 	 -7.145402 	 6.435862 
H 	 -6.678142 	 -6.106201 	 6.315219 
H 	 0.345955 	 -6.570415 	 0.312592 
H 	 -0.035769 	 -6.612644 	 -1.210664 
H 	 -4.547090 	 5.215227 	 -3.010706 
H 	 -3.306399 	 4.736975 	 -2.181661 
H 	 -5.401494 	 -7.574835 	 -1.855203 
H 	 -4.960111 	 7.054545 	 -0.396222 
H 	 1.953360 	 4.446974 	 -4.905618 
H 	 3.060112 	 5.530939 	 -5.104906 
H 	 0.273514 	 1.431212 	 -2.600528 
H 	 1.400210 	 1.650873 	 -1.595942 
H 	 -5.442415 	 -7.163267 	 -5.357641 
H 	 -5.837287 	 6.544677 	 -6.238596 
H 	 -6.910008 	 -3.114845 	 -1.868364 
H 	 7.152168 	 -3.516303 	 -3.130141 
H 	 4.565743 	 7.124855 	 1.368878 
H 	 4.942171 	 6.109090 	 0.277179 
H 	 5.631955 	 7.000172 	 -4.845451 
H 	 5.681789 	 5.968942 	 -5.986833 
H 	 6.161755 	 -7.113745 	 7.085951 
H 	 5.766802 	 -5.564507 	 7.195427 
H 	 1.043916 	 -6.432954 	 -5.254265 
H 	 0.778774 	 7.184384 	 -5.910414 
H 	 -3.447661 	 0.811298 	 -1.767309 
H 	 -2.869885 	 2.054861 	 -2.453663 
H 	 -0.417564 	 4.754254 	 -7.386064 
H 	 0.647433 	 4.675335 	 6.433959 
H 	 -5.474373 	 -0.816434 	 -4.027147 
H 	 -5.787031 	 -2.317285 	 -3.518183 
H 	 -6.683304 	 2.903125 	 -1.648354 
H 	 -7.121033 	 3.861578 	 -0.520091 
H 	 -4.518525 	 -1.881512 	 -0.561271 
H 	 -4.131403 	 -1.675449 	 -2.015376 
H 	 2.603537 	 -2.078293 	 5.942589 
H 	 4.175382 	 -1.815170 	 6.318949 
H 	 -0.627276 	 -2.074804 	 2.100289 
H 	 -0.531416 	 -0.953294 	 0.995310 
H 	 5.694058 	 -1.477514 	 -3.879345 
H 	 4.795653 	 -2.569323 	 -4.427928 
H 	 0.691909 	 1.713885 	 6.678187 
H 	 1.706002 	 0.898294 	 -7.283316 
H 	 -7.046978 	 5.023495 	 2.199415 
H 	 6.665993 	 5.914804 	 1.735806 
H 	 5.520116 	 2.265564 	 5.193575 
H 	 6.968211 	 2.713683 	 5.049163 
H 	 2.538409 	 0.671486 	 0.114269 
H 	 2.295110 	 2.136572 	 0.499988 
H 	 -5.839013 	 4.875634 	 -7.475030 
O 	 0.693488 	 -6.418866 	 2.120287 
O 	 -2.121433 	 -6.757722 	 -1.524097 
O 	 -4.284978 	 5.811614 	 0.975532 
O 	 7.349338 	 -2.573681 	 -7.229488 
O 	 -6.130985 	 0.333270 	 -5.681716 
O 	 -2.470844 	 -4.048858 	 -0.117792 
O 	 1.323023 	 -3.689211 	 -1.103967 
O 	 2.612327 	 -3.955770 	 1.764172 
O 	 2.588092 	 -0.060272 	 -2.784030 
O 	 5.643210 	 -6.103509 	 -3.801454 
O 	 -1.686939 	 7.023920 	 0.838635 
O 	 0.290597 	 5.312743 	 0.063088 
O 	 3.066626 	 7.226524 	 2.820424 
O 	 6.128728 	 5.108990 	 6.629587 
O 	 -6.606960 	 -3.514176 	 5.040091 
O 	 3.175723 	 5.465396 	 5.461120 
O 	 6.447583 	 -5.470926 	 3.570454 
O 	 -0.629017 	 -3.844599 	 2.066985 
O 	 7.028623 	 2.904205 	 -6.181511 
O 	 0.125062 	 2.604509 	 -4.916703 
O 	 1.821971 	 -3.429892 	 -6.234987 
O 	 -4.664999 	 -1.953960 	 7.266856 
O 	 -3.551247 	 3.822260 	 -6.987010 
O 	 3.350734 	 -2.621717 	 -3.263546 
O 	 -4.892622 	 -3.895082 	 2.842468 
O 	 -1.259871 	 3.019978 	 1.157631 
O 	 1.288734 	 -5.605433 	 -3.745601 
O 	 -6.793266 	 -1.458716 	 -0.615682 
O 	 2.669275 	 -0.094846 	 -6.244789 
O 	 2.070868 	 -1.116015 	 0.557828 
O 	 -7.082660 	 1.318766 	 0.787045 
O 	 -2.379025 	 4.398589 	 3.552239 
O 	 3.386111 	 3.669397 	 -7.246779 
O 	 6.568929 	 -2.590592 	 2.429215 
O 	 0.539946 	 -1.610165 	 5.589391 
O 	 -1.990795 	 2.481210 	 5.564935 
O 	 5.137030 	 -2.066220 	 -0.983599 
O 	 -5.925068 	 1.136441 	 -2.337626 
O 	 -2.308954 	 6.445218 	 -5.499304 
O 	 2.782053 	 -4.844842 	 5.199681 
O 	 -2.767595 	 1.425090 	 -4.667912 
O 	 -1.558803 	 -3.922562 	 6.608623 
O 	 3.976785 	 -4.965811 	 -6.071782 
O 	 5.082248 	 -4.441226 	 0.888933 
O 	 -5.430531 	 0.306866 	 5.227371 
O 	 6.180861 	 6.787248 	 3.895327 
O 	 -4.085472 	 -4.700001 	 -7.188836 
O 	 2.529604 	 4.748567 	 -1.752242 
O 	 -2.908439 	 0.109488 	 2.530950 
O 	 -6.264266 	 3.483256 	 3.176837 
O 	 3.360280 	 1.712892 	 4.755474 
O 	 2.688378 	 3.845964 	 2.467875 
O 	 3.556706 	 -6.128824 	 -1.631893 
O 	 -6.178809 	 -6.683652 	 1.907709 
O 	 -3.280734 	 6.584119 	 6.023196 
O 	 -5.502832 	 3.523998 	 -4.105650 
O 	 5.179551 	 2.346295 	 -1.398919 
O 	 -1.603126 	 -5.446817 	 -5.649236 
O 	 7.393336 	 -0.150422 	 3.351538 
O 	 -0.881567 	 -0.805226 	 -0.781633 
O 	 -5.767945 	 -4.393329 	 -0.186357 
O 	 -6.874146 	 -5.424507 	 -5.329623 
O 	 -4.448977 	 2.664098 	 0.903201 
O 	 -7.241923 	 6.216593 	 -2.908641 
O 	 0.270317 	 5.494678 	 3.815731 
O 	 5.717734 	 0.164303 	 -6.614104 
O 	 -5.068436 	 -1.300463 	 1.790474 
O 	 -0.628092 	 6.656618 	 -3.348013 
O 	 4.564722 	 2.066040 	 -4.161595 
O 	 3.480181 	 -1.521211 	 3.007246 
O 	 4.987551 	 -0.039740 	 0.767058 
O 	 -4.480846 	 -5.671322 	 -3.690228 
O 	 0.007003 	 -7.083069 	 5.898674 
O 	 -5.824937 	 5.931411 	 4.405312 
O 	 0.028917 	 1.945097 	 3.418399 
O 	 6.236628 	 -0.130007 	 -3.032433 
O 	 -3.050771 	 -6.170668 	 3.083162 
O 	 5.858373 	 -1.413294 	 5.382523 
O 	 5.442616 	 3.371247 	 1.402671 
O 	 0.405136 	 -0.245369 	 -4.619423 
O 	 -2.420431 	 -1.686450 	 -4.842680 
O 	 -1.389637 	 3.997965 	 -2.794318 
O 	 4.829396 	 5.922889 	 -1.938668 
O 	 -1.118234 	 -3.865791 	 -2.885122 
O 	 -2.349150 	 -0.167950 	 7.210186 
O 	 -2.715128 	 -2.434551 	 3.989582 
O 	 -5.761486 	 -6.299369 	 6.007984 
O 	 0.682397 	 -6.389230 	 -0.590297 
O 	 -4.076008 	 5.365702 	 -2.160716 
O 	 -5.437867 	 -7.184163 	 -0.959906 
O 	 2.126645 	 5.404692 	 -4.785539 
O 	 0.455051 	 1.789753 	 -1.702034 
O 	 -5.261466 	 6.789345 	 -5.450938 
O 	 -6.977335 	 -3.791672 	 -2.581272 
O 	 5.223640 	 6.963160 	 0.667176 
O 	 5.454911 	 6.055508 	 -5.038571 
O 	 6.518934 	 -6.170330 	 7.136459 
O 	 1.042942 	 -6.830809 	 -6.129912 
O 	 -2.923682 	 1.619872 	 -1.564828 
O 	 0.527131 	 4.517071 	 7.397317 
O 	 -5.321286 	 -1.783599 	 -4.198670 
O 	 -7.230904 	 3.699590 	 -1.497339 
O 	 -3.776632 	 -1.540753 	 -1.102810 
O 	 3.330784 	 -2.265428 	 6.600147 
O 	 -0.525134 	 -1.106189 	 1.951617 
O 	 5.695312 	 -2.159797 	 -4.591026 
O 	 1.293064 	 0.974852 	 6.732440 
O 	 7.429437 	 5.421264 	 1.415116 
O 	 6.407229 	 2.192844 	 5.646864 
O 	 2.880142 	 1.567229 	 -0.059306 
O 	 -6.409340 	 5.579805 	 7.065814 
K 	 6.709174 	 -6.070618 	 -0.888663 
