333
conformation = 39
H 	 1.089533 	 -6.842422 	 3.074502 
H 	 0.059794 	 -5.849981 	 2.676846 
H 	 -2.085175 	 -6.885193 	 -0.726148 
H 	 -1.299118 	 -6.311746 	 -1.936417 
H 	 -4.296560 	 5.602857 	 2.718304 
H 	 -3.695966 	 6.148842 	 1.547054 
H 	 -6.220099 	 -3.452803 	 -6.895876 
H 	 7.511676 	 -2.652943 	 -6.223324 
H 	 -5.986967 	 0.405989 	 -7.003532 
H 	 -4.651922 	 -0.163394 	 -6.414600 
H 	 -2.289077 	 -4.542132 	 -0.319338 
H 	 -2.416203 	 -3.044918 	 -0.625631 
H 	 0.704064 	 -3.119241 	 -1.661627 
H 	 1.590575 	 -3.397568 	 -0.428432 
H 	 2.967876 	 -3.787903 	 1.707697 
H 	 1.435487 	 -3.445333 	 1.906166 
H 	 2.628077 	 0.745117 	 -3.299770 
H 	 1.717753 	 -0.356515 	 -3.671627 
H 	 4.987273 	 -5.627787 	 -4.207006 
H 	 6.475387 	 -5.903730 	 -4.253978 
H 	 -1.286621 	 6.147752 	 0.885761 
H 	 -1.813285 	 -7.471322 	 1.553036 
H 	 0.753258 	 5.039299 	 1.599187 
H 	 -0.307229 	 4.052919 	 1.317386 
H 	 3.638644 	 -6.310573 	 3.384009 
H 	 3.622692 	 7.053988 	 3.835175 
H 	 6.916082 	 5.560331 	 6.893675 
H 	 6.497174 	 4.151530 	 6.189668 
H 	 7.495886 	 -3.594277 	 6.204230 
H 	 -6.476217 	 -3.292069 	 5.015605 
H 	 2.374269 	 6.590640 	 6.376400 
H 	 3.286430 	 5.352925 	 6.103336 
H 	 5.992632 	 -6.572729 	 4.561046 
H 	 6.367794 	 -5.172000 	 4.579921 
H 	 -1.197339 	 -3.422016 	 3.245603 
H 	 -1.299893 	 -3.829322 	 1.710481 
H 	 6.403810 	 3.863727 	 -6.268183 
H 	 6.738303 	 2.378851 	 -6.178896 
H 	 0.625117 	 3.784426 	 -4.938646 
H 	 -0.385012 	 2.638703 	 -4.793101 
H 	 1.462274 	 -3.281801 	 -5.622648 
H 	 0.097162 	 -3.799766 	 -5.209707 
H 	 -3.405006 	 -1.257003 	 6.723746 
H 	 -4.554595 	 -2.255403 	 6.460767 
H 	 -3.730281 	 3.364055 	 7.119208 
H 	 -3.035909 	 4.350393 	 -6.784547 
H 	 2.926159 	 -2.617345 	 -3.702872 
H 	 3.768734 	 -1.307292 	 -3.317371 
H 	 -3.684538 	 -3.113682 	 3.936466 
H 	 -4.805344 	 -3.248255 	 2.929617 
H 	 -2.131255 	 2.661922 	 1.718663 
H 	 -1.433362 	 2.361396 	 0.338943 
H 	 0.352438 	 -6.461945 	 -4.575851 
H 	 1.519961 	 -5.746097 	 -3.825442 
H 	 7.173781 	 -1.441904 	 -0.490298 
H 	 -6.319879 	 -1.677485 	 -1.194545 
H 	 4.232239 	 -0.444178 	 -6.837310 
H 	 4.027845 	 0.659554 	 -5.747111 
H 	 2.643355 	 -0.889445 	 -0.421833 
H 	 1.736963 	 -0.700450 	 0.796500 
H 	 -5.467605 	 1.451674 	 0.462251 
H 	 -6.569982 	 0.480796 	 -0.102688 
H 	 -3.597376 	 4.795631 	 4.366657 
H 	 -2.186150 	 4.723674 	 3.821326 
H 	 3.548246 	 3.937627 	 -6.589566 
H 	 4.763337 	 3.795818 	 -7.498512 
H 	 -7.127256 	 -1.694293 	 2.397487 
H 	 -6.800644 	 -2.770816 	 1.321137 
H 	 0.880637 	 -0.905852 	 4.412176 
H 	 1.122577 	 -0.018718 	 5.664339 
H 	 -2.759964 	 2.048222 	 4.996256 
H 	 -1.286044 	 2.203473 	 5.178799 
H 	 4.745859 	 -2.672709 	 -2.020518 
H 	 4.853876 	 -2.146838 	 -0.526598 
H 	 -5.292949 	 2.224640 	 -3.386310 
H 	 -6.324786 	 1.097845 	 -3.209545 
H 	 -1.427591 	 5.412574 	 -5.006742 
H 	 -2.774979 	 6.083332 	 -5.190894 
H 	 2.790580 	 -4.046460 	 4.906941 
H 	 2.312514 	 -4.522269 	 3.486842 
H 	 -2.268849 	 0.952646 	 -5.040514 
H 	 -3.446031 	 1.714786 	 -5.778392 
H 	 -0.266204 	 -3.446777 	 7.311686 
H 	 -1.573971 	 -4.083662 	 6.972493 
H 	 3.625311 	 -4.084855 	 -6.981602 
H 	 3.405832 	 -5.595054 	 -6.780956 
H 	 5.192910 	 -5.050702 	 2.402248 
H 	 6.130164 	 -4.019163 	 1.813977 
H 	 -5.525271 	 1.184323 	 5.956216 
H 	 -5.302836 	 -0.330846 	 5.617140 
H 	 7.023967 	 5.741503 	 3.585261 
H 	 6.044044 	 5.757016 	 4.686397 
H 	 -4.890603 	 -5.207732 	 6.789692 
H 	 -4.211933 	 -4.853938 	 -6.797286 
H 	 1.654874 	 3.874225 	 -1.977205 
H 	 2.880477 	 4.555158 	 -1.360757 
H 	 -3.114897 	 0.388236 	 2.972474 
H 	 -1.993979 	 -0.235370 	 2.103750 
H 	 -6.003671 	 3.987612 	 3.844251 
H 	 -6.015753 	 3.247615 	 2.489408 
H 	 3.089855 	 1.487564 	 5.030167 
H 	 3.962598 	 0.529441 	 4.358770 
H 	 3.243865 	 4.541784 	 1.935399 
H 	 3.487867 	 3.507530 	 3.087995 
H 	 3.096996 	 -5.056524 	 -1.591506 
H 	 2.481802 	 -6.452393 	 -1.685875 
H 	 -6.228776 	 -6.945561 	 2.682743 
H 	 7.388063 	 -6.210221 	 2.439457 
H 	 -1.712686 	 7.152911 	 6.210197 
H 	 -3.016562 	 6.499653 	 6.942042 
H 	 -6.361288 	 3.681336 	 -5.193536 
H 	 -4.930103 	 4.075764 	 -5.451835 
H 	 6.337649 	 2.653646 	 -1.700139 
H 	 4.984339 	 2.292033 	 -1.004998 
H 	 -2.719425 	 -5.595293 	 -4.979375 
H 	 -2.235628 	 -6.707609 	 -5.923169 
H 	 -6.845151 	 0.880268 	 2.844561 
H 	 -7.111849 	 0.149886 	 4.145442 
H 	 -1.446972 	 -1.312464 	 -1.498124 
H 	 -0.502650 	 -0.073067 	 -1.305324 
H 	 -5.118560 	 -3.232897 	 0.153584 
H 	 -5.440815 	 -4.693367 	 -0.266549 
H 	 -6.402452 	 -5.243509 	 -5.398429 
H 	 -7.016892 	 -6.217608 	 -6.422118 
H 	 -4.417300 	 4.150971 	 0.738239 
H 	 -3.830514 	 2.745613 	 0.132660 
H 	 7.581891 	 6.438675 	 -4.297167 
H 	 -6.987616 	 5.287929 	 -3.302170 
H 	 1.351247 	 4.937067 	 4.304393 
H 	 0.032155 	 5.441838 	 4.974708 
H 	 6.623176 	 0.329345 	 7.111919 
H 	 6.636534 	 0.024513 	 -6.360415 
H 	 -3.967932 	 -1.044774 	 1.465379 
H 	 -5.421398 	 -0.842444 	 1.159236 
H 	 0.572489 	 6.208642 	 -2.683959 
H 	 -0.954377 	 6.055826 	 -2.439788 
H 	 4.252451 	 2.479227 	 -3.240655 
H 	 3.481373 	 3.179618 	 -4.376015 
H 	 3.591898 	 -1.454666 	 2.476283 
H 	 4.797092 	 -2.201581 	 3.082008 
H 	 4.495357 	 0.220744 	 1.404230 
H 	 5.959368 	 -0.305024 	 1.688264 
H 	 -4.757072 	 -4.553168 	 -3.259497 
H 	 -3.705862 	 -5.608057 	 -2.890354 
H 	 0.319907 	 -6.848524 	 6.380169 
H 	 -0.064918 	 -6.880383 	 4.878661 
H 	 -5.235563 	 6.396503 	 4.328883 
H 	 -6.217522 	 5.865958 	 5.385418 
H 	 -0.081176 	 2.053777 	 3.140010 
H 	 0.783779 	 2.057492 	 4.370596 
H 	 5.950448 	 0.936370 	 -3.659150 
H 	 6.260543 	 -0.267814 	 -2.712738 
H 	 -2.666762 	 -6.673740 	 4.179223 
H 	 -3.390788 	 -5.732646 	 3.236213 
H 	 6.504775 	 -2.031319 	 5.417542 
H 	 5.407570 	 -1.129880 	 5.037608 
H 	 6.248866 	 3.568315 	 1.727475 
H 	 5.865982 	 2.042891 	 1.412786 
H 	 1.509743 	 -0.240689 	 -6.112960 
H 	 0.439255 	 -0.645536 	 -5.034479 
H 	 -3.089193 	 -1.663371 	 -5.122460 
H 	 -1.633149 	 -1.626708 	 -5.739720 
H 	 -1.989959 	 3.920548 	 -3.098631 
H 	 -1.207926 	 4.033305 	 -1.791244 
H 	 4.656114 	 6.941895 	 -2.000432 
H 	 5.655998 	 5.800887 	 -2.079504 
H 	 -1.718610 	 -3.818678 	 -2.881924 
H 	 -1.113836 	 -2.733110 	 -3.861344 
H 	 -0.961868 	 -0.375271 	 7.138503 
H 	 -1.850518 	 0.806158 	 6.568606 
H 	 -2.751017 	 -1.346612 	 4.978290 
H 	 -2.111246 	 -2.599120 	 5.342240 
H 	 -5.992494 	 -6.983090 	 6.026834 
H 	 -6.111443 	 -5.898300 	 4.878878 
H 	 1.142047 	 -6.804979 	 0.322173 
H 	 0.407938 	 7.209836 	 -0.722665 
H 	 -4.748153 	 5.223898 	 -2.827449 
H 	 -3.383596 	 5.299571 	 -2.030902 
H 	 -4.816783 	 -7.225051 	 -1.270873 
H 	 -5.251372 	 -7.207065 	 0.171583 
H 	 2.840394 	 4.817764 	 -3.814783 
H 	 3.445986 	 5.603124 	 -4.924345 
H 	 0.244813 	 1.942376 	 -2.298617 
H 	 0.821074 	 2.296827 	 -0.864332 
H 	 -5.033775 	 -7.121285 	 -4.962378 
H 	 -4.786356 	 7.069526 	 -6.354609 
H 	 -6.835637 	 -3.166652 	 -2.657109 
H 	 7.082729 	 -3.343208 	 -3.780075 
H 	 4.627330 	 7.275554 	 1.739147 
H 	 4.966706 	 6.934553 	 0.259799 
H 	 5.427264 	 7.231844 	 -5.239372 
H 	 5.674543 	 6.549000 	 -6.608521 
H 	 6.408536 	 -6.969340 	 7.154571 
H 	 5.589722 	 -5.729487 	 7.228571 
H 	 1.669363 	 -6.703141 	 -6.113903 
H 	 2.977473 	 7.279672 	 -6.408167 
H 	 -3.002901 	 0.753554 	 -1.440825 
H 	 -3.455491 	 2.162273 	 -1.897991 
H 	 0.292349 	 5.547011 	 -6.725338 
H 	 -0.835340 	 4.814614 	 -7.435912 
H 	 -5.363433 	 -1.018968 	 -4.599751 
H 	 -5.462230 	 -2.591889 	 -4.490481 
H 	 -6.061729 	 3.617053 	 -0.654088 
H 	 7.500510 	 4.286852 	 -0.552530 
H 	 -3.933407 	 -1.213318 	 -0.877433 
H 	 -4.026029 	 -1.262309 	 -2.447391 
H 	 2.377382 	 -1.842797 	 6.195211 
H 	 3.752267 	 -2.423595 	 6.141780 
H 	 -0.470568 	 -1.984131 	 1.831529 
H 	 -0.486741 	 -1.265528 	 0.500872 
H 	 6.229267 	 -1.330675 	 -4.540113 
H 	 5.281466 	 -2.638906 	 -4.778414 
H 	 1.798106 	 2.675571 	 6.447537 
H 	 2.421075 	 1.607677 	 7.265308 
H 	 -6.656358 	 5.967792 	 1.484031 
H 	 6.744695 	 6.095748 	 1.367455 
H 	 5.522211 	 2.231929 	 4.847167 
H 	 6.745849 	 2.846510 	 4.013289 
H 	 2.702755 	 1.629875 	 0.263383 
H 	 2.200558 	 2.919165 	 1.114472 
H 	 -6.063152 	 5.965853 	 -7.469689 
O 	 0.243515 	 -6.807991 	 2.589253 
O 	 -2.076252 	 -6.123143 	 -1.349494 
O 	 -4.599571 	 5.886932 	 1.817556 
O 	 -6.942731 	 -2.836533 	 -7.082132 
O 	 -5.248301 	 0.617923 	 -6.389349 
O 	 -2.301810 	 -3.654367 	 0.138019 
O 	 1.637287 	 -3.271021 	 -1.407758 
O 	 2.066808 	 -4.200668 	 1.737841 
O 	 2.182508 	 -0.049227 	 -2.869294 
O 	 5.650377 	 -6.106330 	 -3.707997 
O 	 -2.035992 	 6.765712 	 0.873060 
O 	 0.119076 	 4.819042 	 0.870129 
O 	 3.398977 	 -7.218315 	 3.080738 
O 	 6.224862 	 4.833439 	 6.873695 
O 	 7.523839 	 -3.655893 	 5.203284 
O 	 2.783032 	 6.089047 	 5.668531 
O 	 6.096704 	 -5.862883 	 3.921917 
O 	 -0.712342 	 -3.850858 	 2.524848 
O 	 6.899029 	 3.236975 	 -5.681750 
O 	 0.170612 	 3.244191 	 -4.281053 
O 	 0.525593 	 -3.062945 	 -5.735019 
O 	 -4.329518 	 -1.452397 	 6.953375 
O 	 -3.900608 	 3.999569 	 -7.055386 
O 	 3.817886 	 -2.305102 	 -3.428944 
O 	 -4.462309 	 -3.704129 	 3.711883 
O 	 -1.242945 	 2.626202 	 1.278342 
O 	 0.978435 	 -5.666094 	 -4.627638 
O 	 -7.106336 	 -1.109979 	 -1.176405 
O 	 3.523482 	 -0.047977 	 -6.258561 
O 	 2.680861 	 -0.694542 	 0.520471 
O 	 -6.348782 	 1.111309 	 0.613294 
O 	 -3.095397 	 4.414721 	 3.583848 
O 	 3.828770 	 3.471147 	 -7.431725 
O 	 7.360564 	 -2.264967 	 1.708810 
O 	 1.052955 	 -0.944516 	 5.372401 
O 	 -2.106165 	 2.263963 	 5.712185 
O 	 5.313231 	 -2.682923 	 -1.188029 
O 	 -5.396082 	 1.310275 	 -3.058109 
O 	 -1.954414 	 5.874782 	 -5.663686 
O 	 2.688553 	 -4.839244 	 4.350658 
O 	 -2.696704 	 1.824475 	 -5.177456 
O 	 -1.158828 	 -3.202141 	 6.949800 
O 	 4.084253 	 -4.867475 	 -6.629920 
O 	 5.334767 	 -4.535249 	 1.582475 
O 	 -5.779049 	 0.485956 	 5.352349 
O 	 6.215369 	 6.271150 	 3.858354 
O 	 -4.698109 	 -4.404814 	 -7.526320 
O 	 2.490606 	 4.365963 	 -2.209537 
O 	 -2.946090 	 -0.029413 	 2.134665 
O 	 -6.184928 	 3.087284 	 3.434961 
O 	 3.662944 	 1.430210 	 4.192382 
O 	 2.802630 	 4.029798 	 2.638981 
O 	 3.326140 	 -5.976865 	 -1.930237 
O 	 -6.675539 	 -6.439826 	 1.999334 
O 	 -2.604617 	 6.753457 	 6.085854 
O 	 -5.600321 	 4.066028 	 -4.710307 
O 	 5.343610 	 2.820871 	 -1.746348 
O 	 -2.061341 	 -5.790194 	 -5.663595 
O 	 -7.214462 	 0.048848 	 3.190947 
O 	 -0.530865 	 -1.051277 	 -1.258942 
O 	 -5.868207 	 -3.837525 	 -0.031048 
O 	 -6.738590 	 -6.149267 	 -5.487618 
O 	 -4.614410 	 3.273012 	 0.382212 
O 	 -7.243526 	 6.240257 	 -3.354601 
O 	 0.378830 	 4.853876 	 4.299392 
O 	 6.993551 	 0.715775 	 -6.942570 
O 	 -4.757970 	 -1.573002 	 1.147201 
O 	 -0.292682 	 6.697667 	 -2.781232 
O 	 3.822085 	 2.318634 	 -4.099027 
O 	 4.070244 	 -1.574815 	 3.316044 
O 	 5.356242 	 -0.002198 	 0.973839 
O 	 -4.326866 	 -5.326464 	 -3.658461 
O 	 -0.234351 	 -7.272465 	 5.754596 
O 	 -5.679315 	 5.560669 	 4.587783 
O 	 0.023493 	 1.569252 	 3.996037 
O 	 6.431728 	 0.086537 	 -3.614409 
O 	 -3.177429 	 -6.668134 	 3.348929 
O 	 5.888377 	 -1.380390 	 5.858766 
O 	 5.542364 	 2.908111 	 1.742284 
O 	 0.694821 	 0.024564 	 -5.657077 
O 	 -2.214624 	 -1.220471 	 -5.068154 
O 	 -2.004624 	 4.366818 	 -2.243580 
O 	 4.796316 	 6.024394 	 -1.700784 
O 	 -0.953983 	 -3.217324 	 -3.024730 
O 	 -1.806795 	 -0.196066 	 6.703830 
O 	 -2.385335 	 -2.143914 	 4.518353 
O 	 -5.471910 	 -6.422409 	 5.412400 
O 	 1.118873 	 -7.035868 	 -0.636069 
O 	 -4.292327 	 5.691966 	 -2.091186 
O 	 -5.332330 	 -6.652714 	 -0.636969 
O 	 2.695410 	 5.000007 	 -4.773794 
O 	 0.074505 	 2.432940 	 -1.496741 
O 	 -4.434718 	 7.207147 	 -5.450123 
O 	 -7.009344 	 -3.788958 	 -3.406365 
O 	 5.376790 	 7.231278 	 1.095561 
O 	 4.963548 	 6.872945 	 -6.042361 
O 	 6.420360 	 -6.046708 	 6.863257 
O 	 2.241146 	 -7.139052 	 -6.812445 
O 	 -3.212235 	 1.652086 	 -1.108494 
O 	 0.068887 	 4.668983 	 -7.096652 
O 	 -4.862861 	 -1.822517 	 -4.315806 
O 	 -6.854975 	 3.801192 	 -1.214549 
O 	 -3.403758 	 -1.269669 	 -1.690972 
O 	 2.918601 	 -2.542889 	 6.643622 
O 	 -0.163114 	 -1.140874 	 1.431503 
O 	 6.194098 	 -2.282933 	 -4.810069 
O 	 1.826992 	 1.695809 	 6.505738 
O 	 7.455956 	 5.435944 	 1.283792 
O 	 6.324566 	 2.777335 	 4.903069 
O 	 1.913074 	 2.188820 	 0.466199 
O 	 -6.742712 	 6.575393 	 7.013722 
K 	 6.547170 	 -5.474161 	 -0.881743 
