333
conformation = 16
H 	 1.551616 	 -6.803645 	 2.297538 
H 	 0.601099 	 -5.507401 	 2.430131 
H 	 -2.061602 	 -7.290153 	 -0.891668 
H 	 -1.934642 	 -7.264849 	 -2.400518 
H 	 -4.885488 	 6.420805 	 1.469283 
H 	 -3.371551 	 6.200668 	 1.124827 
H 	 -6.645695 	 -2.628366 	 -6.764669 
H 	 6.691204 	 -2.724964 	 -6.611989 
H 	 -6.878222 	 0.796314 	 -5.595035 
H 	 -6.280927 	 -0.570408 	 -5.968824 
H 	 -2.553548 	 -4.895747 	 -0.499307 
H 	 -3.083095 	 -3.445907 	 -0.571117 
H 	 0.732106 	 -3.242037 	 -1.544019 
H 	 0.917184 	 -4.444700 	 -0.657947 
H 	 3.463527 	 -4.411256 	 1.351261 
H 	 2.123385 	 -3.575306 	 0.923647 
H 	 3.099524 	 0.662168 	 -3.350261 
H 	 1.718058 	 0.008422 	 -3.350880 
H 	 5.090133 	 -5.386762 	 -4.312407 
H 	 6.493118 	 -5.859398 	 -4.279705 
H 	 -0.876197 	 6.601265 	 0.569521 
H 	 -1.624186 	 -7.191621 	 1.536659 
H 	 1.061135 	 4.909312 	 -0.499486 
H 	 0.269428 	 4.727139 	 0.861442 
H 	 3.478761 	 -6.900518 	 3.222934 
H 	 2.852746 	 6.639735 	 3.522861 
H 	 7.202432 	 5.453623 	 6.745531 
H 	 6.406069 	 4.190148 	 6.221378 
H 	 -6.512843 	 -3.229086 	 5.848865 
H 	 -5.796646 	 -3.724050 	 4.501080 
H 	 3.315759 	 6.397621 	 5.994464 
H 	 3.378477 	 4.818028 	 5.972692 
H 	 6.135750 	 -6.308889 	 3.994331 
H 	 6.959128 	 -4.981167 	 4.241678 
H 	 -1.394073 	 -3.870717 	 2.759222 
H 	 -1.174795 	 -4.084007 	 1.303403 
H 	 6.881116 	 3.806306 	 -6.819742 
H 	 7.099195 	 2.356001 	 -6.926822 
H 	 0.448779 	 3.069413 	 -5.751973 
H 	 -0.519198 	 1.945939 	 -5.202393 
H 	 2.057357 	 -3.096303 	 -7.159943 
H 	 0.866214 	 -3.833019 	 -6.496939 
H 	 -3.863700 	 -1.430395 	 6.824437 
H 	 -4.286463 	 -2.872797 	 7.193310 
H 	 -2.805969 	 3.604889 	 7.260577 
H 	 -3.155188 	 4.554524 	 -6.452008 
H 	 2.524430 	 -3.107368 	 -3.455298 
H 	 3.063133 	 -1.613431 	 -3.063520 
H 	 -3.931669 	 -4.137412 	 2.968883 
H 	 -4.824178 	 -2.945513 	 2.587237 
H 	 -2.330795 	 3.043899 	 1.513932 
H 	 -1.662329 	 2.705792 	 0.239275 
H 	 0.713411 	 -4.755381 	 -3.598134 
H 	 1.701853 	 -5.738876 	 -3.072421 
H 	 7.132804 	 -1.577885 	 -0.856571 
H 	 -6.543743 	 -1.922599 	 0.018222 
H 	 3.027445 	 -0.892502 	 -6.626086 
H 	 3.648994 	 0.483701 	 -6.283668 
H 	 1.436206 	 -1.477561 	 -0.131910 
H 	 1.472845 	 -1.157052 	 1.334560 
H 	 -6.122319 	 1.729170 	 0.628351 
H 	 -7.091445 	 0.510954 	 0.197774 
H 	 -2.963092 	 5.055373 	 4.160559 
H 	 -1.446893 	 4.778247 	 3.831660 
H 	 2.836337 	 4.130208 	 -6.796976 
H 	 4.313445 	 4.091500 	 -7.150075 
H 	 7.089472 	 -1.772140 	 2.118235 
H 	 6.822470 	 -2.502172 	 3.366394 
H 	 0.597991 	 -1.201338 	 4.690677 
H 	 0.882192 	 -0.699109 	 6.113199 
H 	 -2.223020 	 3.341399 	 4.964561 
H 	 -1.255359 	 2.073292 	 5.193680 
H 	 4.499109 	 -2.286113 	 -1.601649 
H 	 4.865351 	 -1.303191 	 -0.403740 
H 	 -6.089192 	 1.837639 	 -3.285112 
H 	 -6.751700 	 0.611444 	 -2.547985 
H 	 -1.683332 	 6.406276 	 -4.724998 
H 	 -3.189832 	 6.554418 	 -5.226346 
H 	 3.271762 	 -4.243554 	 5.721969 
H 	 2.914216 	 -4.383021 	 4.197637 
H 	 -2.786308 	 0.570690 	 -4.710177 
H 	 -3.369175 	 1.720574 	 -5.553960 
H 	 -1.054561 	 -3.549244 	 5.885291 
H 	 -1.051466 	 -4.445160 	 7.200832 
H 	 3.296052 	 -4.292609 	 -5.843649 
H 	 3.555800 	 -5.569621 	 -6.677193 
H 	 5.478868 	 -4.043171 	 1.753949 
H 	 5.042084 	 -3.462418 	 0.412751 
H 	 -5.552338 	 1.246295 	 5.464758 
H 	 -5.580671 	 -0.142609 	 6.124088 
H 	 7.173016 	 6.510367 	 3.941698 
H 	 5.834128 	 6.315775 	 4.735427 
H 	 -4.655182 	 -5.049487 	 6.844064 
H 	 -3.208823 	 -4.665746 	 7.157786 
H 	 2.177814 	 5.341938 	 -2.406302 
H 	 3.477184 	 4.868423 	 -1.725108 
H 	 -2.813892 	 1.010807 	 1.875289 
H 	 -2.042420 	 -0.339795 	 2.276421 
H 	 -5.823556 	 4.110573 	 3.774518 
H 	 -5.575489 	 3.018392 	 2.690500 
H 	 2.632720 	 1.618814 	 5.246630 
H 	 3.290196 	 1.186514 	 3.787834 
H 	 3.664785 	 3.712818 	 2.232764 
H 	 2.613730 	 3.587237 	 3.376603 
H 	 3.392166 	 -5.219032 	 -2.079490 
H 	 2.880285 	 -6.279041 	 -1.114178 
H 	 -6.944972 	 -7.126659 	 1.381525 
H 	 -6.761801 	 -6.077664 	 2.481870 
H 	 -2.548983 	 7.109974 	 6.163699 
H 	 -3.587887 	 6.250465 	 6.810107 
H 	 -6.212716 	 4.034532 	 -4.710511 
H 	 -5.062499 	 3.061097 	 -4.865284 
H 	 5.991517 	 3.056169 	 -1.476330 
H 	 4.625529 	 2.669404 	 -0.751439 
H 	 -2.502586 	 -5.187564 	 -5.334850 
H 	 -1.666995 	 -6.376237 	 -5.862005 
H 	 7.248420 	 0.711600 	 2.725669 
H 	 -6.950398 	 0.241737 	 4.024019 
H 	 -1.780310 	 -1.127554 	 -1.056742 
H 	 -1.065309 	 0.192303 	 -1.079581 
H 	 -5.998365 	 -4.278152 	 0.710176 
H 	 -5.251570 	 -5.031131 	 -0.457757 
H 	 -6.215851 	 -5.033131 	 -5.302968 
H 	 -7.158820 	 -5.697876 	 -6.377804 
H 	 -4.535867 	 3.743994 	 0.828070 
H 	 -4.210925 	 2.525691 	 -0.018632 
H 	 7.296357 	 5.998124 	 -3.901283 
H 	 -6.921426 	 5.356932 	 -2.665247 
H 	 1.091619 	 5.206806 	 4.153107 
H 	 0.195207 	 6.447601 	 3.915515 
H 	 5.612397 	 0.044073 	 7.173219 
H 	 5.400457 	 -0.580492 	 -6.312125 
H 	 -4.096919 	 -0.852673 	 1.678675 
H 	 -5.514622 	 -0.790244 	 2.265411 
H 	 0.289510 	 6.809407 	 -3.344452 
H 	 -0.838511 	 5.839103 	 -2.914191 
H 	 4.706935 	 2.551962 	 -3.400167 
H 	 5.057990 	 2.150536 	 -4.948544 
H 	 3.193898 	 -2.360819 	 2.504421 
H 	 4.430764 	 -1.545082 	 2.618185 
H 	 4.797483 	 0.929191 	 0.242004 
H 	 4.196473 	 -0.189055 	 1.115745 
H 	 -4.890503 	 -5.083751 	 -3.159985 
H 	 -3.978460 	 -6.408254 	 -3.123458 
H 	 0.056169 	 -7.242062 	 6.826342 
H 	 0.359208 	 -6.151370 	 5.743577 
H 	 -5.097113 	 6.686541 	 4.377301 
H 	 -6.024277 	 5.923373 	 5.267137 
H 	 -0.257057 	 1.568096 	 2.483330 
H 	 0.001170 	 2.873246 	 3.126691 
H 	 5.754184 	 0.633163 	 -3.546053 
H 	 5.747109 	 -0.282945 	 -2.301364 
H 	 -3.161058 	 -6.427160 	 3.993782 
H 	 -4.017780 	 -6.090827 	 2.795894 
H 	 6.577494 	 -1.726112 	 5.891270 
H 	 5.919911 	 -0.797027 	 4.715366 
H 	 6.247256 	 3.922836 	 1.469862 
H 	 5.927459 	 2.482022 	 1.574867 
H 	 1.238201 	 -0.096682 	 -5.481114 
H 	 0.211132 	 -1.198693 	 -4.876536 
H 	 -3.314976 	 -2.020768 	 -4.645673 
H 	 -2.573891 	 -1.247089 	 -5.726951 
H 	 -1.421340 	 3.698677 	 -3.713309 
H 	 -0.962863 	 3.420016 	 -2.217927 
H 	 4.409760 	 6.693666 	 -2.287079 
H 	 5.760089 	 5.995353 	 -2.396154 
H 	 -1.466882 	 -4.717643 	 -3.140155 
H 	 -1.079493 	 -3.389579 	 -3.869579 
H 	 -1.452033 	 -0.482109 	 6.530008 
H 	 -2.265711 	 0.811375 	 6.808086 
H 	 -3.430941 	 -1.832788 	 3.663807 
H 	 -2.089781 	 -1.861215 	 4.443602 
H 	 -5.764988 	 -7.257454 	 6.243797 
H 	 -6.622214 	 -6.056905 	 6.094447 
H 	 0.844057 	 -6.399195 	 0.308464 
H 	 -0.038822 	 -6.693234 	 -0.952546 
H 	 -4.557115 	 5.433110 	 -3.053232 
H 	 -3.459819 	 4.859891 	 -2.247952 
H 	 -5.439073 	 -7.320979 	 -1.849173 
H 	 -4.806963 	 7.203609 	 -0.469263 
H 	 2.300584 	 4.527610 	 -4.694892 
H 	 3.111033 	 5.772637 	 -5.054055 
H 	 0.298771 	 1.502692 	 -2.602063 
H 	 1.406017 	 1.677406 	 -1.498016 
H 	 -5.575203 	 -6.977107 	 -5.344464 
H 	 -5.824175 	 6.643827 	 -6.173669 
H 	 -6.675312 	 -3.224994 	 -1.863380 
H 	 7.232888 	 -3.221735 	 -3.108063 
H 	 4.476838 	 7.310433 	 1.184776 
H 	 4.921582 	 6.534580 	 -0.161834 
H 	 5.499214 	 7.146189 	 -4.912353 
H 	 5.616490 	 6.037168 	 -6.070818 
H 	 6.351958 	 -6.974585 	 6.804425 
H 	 5.740333 	 -5.596532 	 7.117242 
H 	 1.023961 	 -6.346365 	 -5.343277 
H 	 1.343937 	 7.106095 	 -5.936127 
H 	 -3.468677 	 0.871911 	 -1.884571 
H 	 -2.742227 	 2.150353 	 -2.298092 
H 	 -0.308085 	 4.998139 	 -7.006457 
H 	 0.392464 	 4.820599 	 6.498474 
H 	 -5.437984 	 -0.751452 	 -4.123158 
H 	 -5.965929 	 -2.146610 	 -3.669182 
H 	 -6.917737 	 2.833960 	 -1.530499 
H 	 -6.975965 	 4.098398 	 -0.571079 
H 	 -4.536256 	 -1.422634 	 -0.575525 
H 	 -4.345733 	 -1.453256 	 -2.088484 
H 	 2.882597 	 -2.075310 	 5.791432 
H 	 4.255596 	 -1.985657 	 6.439093 
H 	 -0.724163 	 -2.051980 	 1.925406 
H 	 -0.656763 	 -0.799702 	 0.865125 
H 	 5.963333 	 -1.384860 	 -4.118936 
H 	 4.943181 	 -2.538640 	 -4.275815 
H 	 0.715524 	 1.657454 	 7.119869 
H 	 1.948533 	 0.748176 	 -7.433918 
H 	 -6.869231 	 4.955080 	 1.967305 
H 	 6.778549 	 5.933994 	 1.835025 
H 	 5.478470 	 2.115073 	 5.375340 
H 	 6.837958 	 2.520850 	 4.660625 
H 	 2.471237 	 0.704025 	 0.037965 
H 	 2.421611 	 2.175924 	 0.674600 
H 	 -5.815054 	 5.015637 	 7.145489 
O 	 0.631924 	 -6.435399 	 2.051985 
O 	 -2.172191 	 -6.677891 	 -1.668095 
O 	 -4.265453 	 5.807162 	 1.039313 
O 	 7.413839 	 -2.540519 	 -7.260130 
O 	 -6.032922 	 0.337109 	 -5.757773 
O 	 -2.434347 	 -4.005646 	 -0.120764 
O 	 1.456686 	 -3.802178 	 -1.193639 
O 	 2.600301 	 -3.969010 	 1.686959 
O 	 2.559895 	 0.040895 	 -2.814658 
O 	 5.621990 	 -6.091675 	 -3.859860 
O 	 -1.737535 	 7.010009 	 0.848555 
O 	 0.334982 	 5.256501 	 0.052434 
O 	 3.030112 	 7.267832 	 2.804148 
O 	 6.150711 	 5.092403 	 6.551521 
O 	 -6.626593 	 -3.496633 	 4.929907 
O 	 3.104086 	 5.607939 	 5.458928 
O 	 6.388430 	 -5.442466 	 3.616190 
O 	 -0.688814 	 -3.793288 	 2.098312 
O 	 7.071524 	 3.038180 	 -6.248429 
O 	 0.032717 	 2.705617 	 -4.928342 
O 	 1.676208 	 -3.332057 	 -6.290026 
O 	 -4.608538 	 -1.928162 	 7.164041 
O 	 -3.553720 	 3.898679 	 -7.091399 
O 	 3.318593 	 -2.566563 	 -3.316087 
O 	 -4.862760 	 -3.887239 	 2.910913 
O 	 -1.426568 	 2.987264 	 1.144744 
O 	 1.187790 	 -5.558579 	 -3.858475 
O 	 -6.794966 	 -1.443863 	 -0.805505 
O 	 2.820216 	 -0.021033 	 -6.279835 
O 	 2.061959 	 -1.098364 	 0.528103 
O 	 -7.019729 	 1.311632 	 0.731432 
O 	 -2.375214 	 4.476324 	 3.612406 
O 	 3.472362 	 3.614636 	 -7.315189 
O 	 6.703989 	 -2.608086 	 2.406916 
O 	 0.507639 	 -1.480230 	 5.623599 
O 	 -2.039875 	 2.524917 	 5.536436 
O 	 5.241878 	 -2.065633 	 -0.966017 
O 	 -5.953680 	 1.193213 	 -2.552342 
O 	 -2.279115 	 6.361308 	 -5.514660 
O 	 2.829381 	 -4.827700 	 5.066770 
O 	 -2.749686 	 1.559716 	 -4.815820 
O 	 -1.608101 	 -3.874692 	 6.614891 
O 	 4.036684 	 -4.890020 	 -6.159713 
O 	 4.999005 	 -4.307332 	 0.935284 
O 	 -5.445354 	 0.314394 	 5.264907 
O 	 6.217422 	 6.700452 	 3.919520 
O 	 -4.127416 	 -4.600295 	 -7.351748 
O 	 2.512867 	 4.669200 	 -1.760984 
O 	 -2.899226 	 0.142620 	 2.373123 
O 	 -6.267244 	 3.527764 	 3.111218 
O 	 3.356166 	 1.756044 	 4.590737 
O 	 2.717504 	 3.831103 	 2.440877 
O 	 3.619313 	 -6.104120 	 -1.732452 
O 	 -6.247891 	 -6.677828 	 1.886816 
O 	 -3.277655 	 6.524365 	 5.927410 
O 	 -5.546674 	 3.555140 	 -4.186154 
O 	 5.287006 	 2.371688 	 -1.409550 
O 	 -1.595578 	 -5.404260 	 -5.646854 
O 	 7.437968 	 -0.083717 	 3.245980 
O 	 -0.912002 	 -0.749985 	 -0.827470 
O 	 -5.765629 	 -4.226200 	 -0.230430 
O 	 -6.946001 	 -5.652320 	 -5.428432 
O 	 -4.398647 	 2.754144 	 0.929158 
O 	 -7.291263 	 6.192190 	 -3.007882 
O 	 0.190289 	 5.467978 	 3.848554 
O 	 5.715642 	 0.207338 	 -6.772520 
O 	 -4.957509 	 -1.364514 	 1.687218 
O 	 -0.675536 	 6.726189 	 -3.310256 
O 	 4.428871 	 2.039313 	 -4.206899 
O 	 3.508642 	 -1.547637 	 2.953758 
O 	 5.026808 	 0.089946 	 0.674060 
O 	 -4.414508 	 -5.723073 	 -3.697288 
O 	 0.021722 	 -7.103989 	 5.852929 
O 	 -5.747486 	 5.974985 	 4.342263 
O 	 -0.035152 	 1.931915 	 3.361995 
O 	 6.258727 	 -0.081847 	 -3.098828 
O 	 -3.059666 	 -6.142106 	 3.055609 
O 	 5.742322 	 -1.417577 	 5.450917 
O 	 5.461485 	 3.328303 	 1.417485 
O 	 0.460330 	 -0.234586 	 -4.884731 
O 	 -2.388751 	 -1.701918 	 -4.853466 
O 	 -1.411651 	 4.046330 	 -2.806596 
O 	 4.902531 	 5.906716 	 -1.936652 
O 	 -1.097111 	 -3.813460 	 -3.015895 
O 	 -2.203148 	 -0.143547 	 7.034465 
O 	 -2.654320 	 -2.409564 	 3.878271 
O 	 -5.704685 	 -6.333235 	 5.932958 
O 	 0.807337 	 -6.253953 	 -0.676864 
O 	 -4.197752 	 5.460076 	 -2.159986 
O 	 -5.369609 	 -7.044981 	 -0.923758 
O 	 2.199249 	 5.484500 	 -4.891888 
O 	 0.471059 	 1.878132 	 -1.733925 
O 	 -5.225864 	 7.009641 	 -5.470773 
O 	 -6.944133 	 -3.716731 	 -2.654476 
O 	 5.217810 	 7.082236 	 0.589432 
O 	 5.386310 	 6.180899 	 -5.124267 
O 	 6.558528 	 -6.110891 	 7.117150 
O 	 1.152144 	 -6.849984 	 -6.223565 
O 	 -2.836289 	 1.536071 	 -1.539438 
O 	 0.425544 	 4.559029 	 -7.459905 
O 	 -5.309150 	 -1.709655 	 -4.268075 
O 	 -7.207599 	 3.759045 	 -1.450145 
O 	 -3.813111 	 -1.508208 	 -1.245996 
O 	 3.333769 	 -2.240729 	 6.631134 
O 	 -0.481201 	 -1.076856 	 1.829714 
O 	 5.731614 	 -2.140299 	 -4.721806 
O 	 1.361070 	 1.022001 	 6.692460 
O 	 7.485462 	 5.450763 	 1.325325 
O 	 6.431742 	 2.280588 	 5.531498 
O 	 2.818894 	 1.640880 	 -0.056086 
O 	 -6.489820 	 5.698884 	 7.082939 
K 	 6.681492 	 -5.994384 	 -0.916891 
