333
conformation = 30
H 	 1.267725 	 -6.652753 	 2.531726 
H 	 0.282482 	 -5.596385 	 2.267332 
H 	 -2.610448 	 -6.266097 	 -0.686186 
H 	 -1.466360 	 -6.613607 	 -1.764039 
H 	 -3.724022 	 5.683203 	 2.482202 
H 	 -3.592556 	 6.297959 	 1.113852 
H 	 -6.226123 	 -2.860533 	 -6.734951 
H 	 7.292932 	 -2.501384 	 -6.128347 
H 	 -6.513559 	 0.832713 	 -6.218564 
H 	 -5.344089 	 -0.021774 	 -6.785434 
H 	 -1.806021 	 -4.305655 	 -0.553841 
H 	 -2.247399 	 -2.910923 	 -0.051444 
H 	 1.197461 	 -3.058635 	 -1.748185 
H 	 1.731497 	 -4.328225 	 -0.995439 
H 	 3.003907 	 -4.072449 	 1.600715 
H 	 1.844140 	 -3.076917 	 1.690184 
H 	 3.049585 	 0.936610 	 -3.084489 
H 	 1.577817 	 0.402822 	 -3.124982 
H 	 4.985104 	 -5.464419 	 -4.007725 
H 	 6.529000 	 -5.843306 	 -4.120412 
H 	 -0.980468 	 6.499261 	 1.082692 
H 	 -1.655246 	 -7.389494 	 1.937686 
H 	 0.995843 	 4.754646 	 1.363625 
H 	 -0.294272 	 4.382916 	 0.688140 
H 	 3.500812 	 -6.544984 	 3.823409 
H 	 3.209844 	 6.860945 	 3.606609 
H 	 7.166545 	 5.723757 	 7.172901 
H 	 6.430928 	 4.547514 	 6.127749 
H 	 -6.462911 	 -3.247476 	 5.993513 
H 	 -6.269890 	 -3.294496 	 4.489346 
H 	 3.334212 	 6.849113 	 6.166043 
H 	 3.169869 	 5.368764 	 6.203040 
H 	 5.807137 	 -6.122988 	 4.358200 
H 	 6.582091 	 -4.804898 	 4.780412 
H 	 -1.333298 	 -3.674865 	 3.200599 
H 	 -1.159325 	 -3.733725 	 1.679295 
H 	 6.759842 	 4.123618 	 -6.479069 
H 	 6.758955 	 2.507100 	 -6.234305 
H 	 0.195369 	 3.867129 	 -5.201121 
H 	 -0.468739 	 2.516053 	 -5.005684 
H 	 1.790411 	 -2.901396 	 -6.171060 
H 	 0.770201 	 -2.871138 	 -4.989354 
H 	 -3.241981 	 -1.060958 	 6.950360 
H 	 -4.101192 	 -2.185926 	 -7.262122 
H 	 -2.863752 	 3.514131 	 -7.304631 
H 	 -3.019298 	 4.707004 	 -6.358945 
H 	 3.243690 	 -2.776593 	 -2.485245 
H 	 3.067048 	 -1.577592 	 -3.356289 
H 	 -4.075065 	 -3.338056 	 4.118747 
H 	 -4.635616 	 -3.134482 	 2.743238 
H 	 -2.348062 	 3.210014 	 1.561751 
H 	 -1.659690 	 2.030729 	 0.793244 
H 	 0.086229 	 -5.095981 	 -3.696790 
H 	 1.654327 	 -5.258846 	 -3.380546 
H 	 7.085212 	 -1.428700 	 -0.977056 
H 	 -6.656016 	 -1.207313 	 -0.028519 
H 	 3.491558 	 -0.651514 	 -6.654721 
H 	 4.191053 	 0.744661 	 -6.514325 
H 	 2.188939 	 -1.142159 	 -0.279182 
H 	 1.480541 	 -0.733273 	 1.070437 
H 	 -6.701728 	 2.245396 	 0.724088 
H 	 -7.080756 	 0.874979 	 0.166074 
H 	 -3.065609 	 5.217338 	 4.825957 
H 	 -1.813007 	 5.117979 	 3.943774 
H 	 3.419825 	 3.809820 	 -6.440672 
H 	 4.793616 	 4.034591 	 -7.212883 
H 	 7.434369 	 -1.689763 	 3.179753 
H 	 -6.844388 	 -2.895583 	 2.309185 
H 	 0.625008 	 -0.977173 	 4.848845 
H 	 1.061634 	 -0.031538 	 6.024712 
H 	 -2.685459 	 2.919795 	 5.105364 
H 	 -1.272452 	 2.644083 	 5.075269 
H 	 5.182068 	 -1.729425 	 -1.571791 
H 	 5.250920 	 -1.695343 	 -0.043131 
H 	 -5.402047 	 2.128641 	 -3.197569 
H 	 -6.559087 	 1.151279 	 -3.104798 
H 	 -1.718036 	 6.142684 	 -4.695002 
H 	 -3.030124 	 6.585611 	 -5.433896 
H 	 3.004351 	 -4.192275 	 5.501089 
H 	 2.639009 	 -4.189677 	 4.005414 
H 	 -2.656260 	 1.044923 	 -5.139655 
H 	 -3.395133 	 2.304002 	 -5.519933 
H 	 -0.388443 	 -2.957036 	 7.471148 
H 	 -1.332356 	 -4.002726 	 -7.119274 
H 	 4.133452 	 -4.208710 	 -7.103570 
H 	 3.562110 	 -5.349168 	 -6.314917 
H 	 5.554059 	 -4.775880 	 2.267727 
H 	 5.927460 	 -3.372115 	 1.695612 
H 	 -6.361389 	 0.710519 	 6.053207 
H 	 -5.281197 	 -0.438552 	 6.103876 
H 	 7.481865 	 6.260075 	 4.303258 
H 	 6.245873 	 5.948107 	 5.151333 
H 	 -4.734373 	 -4.844107 	 6.545155 
H 	 -3.541498 	 -4.581134 	 -7.260395 
H 	 2.273603 	 4.750382 	 -0.849897 
H 	 3.414325 	 4.331042 	 -1.786829 
H 	 -2.892148 	 1.188665 	 2.502491 
H 	 -1.788787 	 0.146034 	 2.398732 
H 	 -5.678222 	 4.201019 	 3.877169 
H 	 -5.614562 	 3.007107 	 2.903348 
H 	 3.256692 	 1.526935 	 5.311622 
H 	 3.630835 	 0.968544 	 4.001883 
H 	 3.780166 	 3.807388 	 2.351935 
H 	 2.831952 	 3.219336 	 3.334932 
H 	 3.566912 	 -4.970478 	 -1.993484 
H 	 3.025233 	 -6.276391 	 -1.317600 
H 	 -5.967319 	 -7.047533 	 2.460677 
H 	 -7.002493 	 -5.968646 	 2.863168 
H 	 -1.973835 	 7.087100 	 6.250443 
H 	 -3.362517 	 6.522128 	 6.842914 
H 	 -6.441819 	 3.865031 	 -4.839361 
H 	 -4.946222 	 4.139527 	 -5.176755 
H 	 6.067712 	 3.486968 	 -1.494265 
H 	 5.287789 	 2.806937 	 -0.457893 
H 	 -2.589579 	 -5.589991 	 -4.971251 
H 	 -1.473852 	 -6.196591 	 -5.843105 
H 	 -7.022376 	 0.810391 	 2.601744 
H 	 -6.464687 	 0.333300 	 4.034568 
H 	 -1.760700 	 -0.702957 	 -1.086624 
H 	 -0.415599 	 -0.075739 	 -1.547375 
H 	 -4.904951 	 -3.480306 	 0.633102 
H 	 -5.497198 	 -4.653120 	 0.006331 
H 	 -6.256969 	 -5.364656 	 -5.035113 
H 	 7.580836 	 -5.763424 	 -6.059067 
H 	 -4.259112 	 4.290978 	 0.681199 
H 	 -4.090086 	 2.700877 	 0.128818 
H 	 -6.941798 	 6.699405 	 -3.721481 
H 	 -7.082767 	 5.256652 	 -3.225063 
H 	 0.860046 	 5.292740 	 3.590131 
H 	 0.972882 	 5.727593 	 5.049342 
H 	 6.402519 	 0.319780 	 7.121769 
H 	 6.244369 	 -0.172344 	 -6.354853 
H 	 -3.966289 	 -0.900671 	 1.591393 
H 	 -5.521084 	 -0.941396 	 1.753768 
H 	 0.286498 	 6.748343 	 -3.507360 
H 	 -0.517392 	 5.925193 	 -2.508885 
H 	 4.613346 	 2.906757 	 -3.564691 
H 	 3.340558 	 2.677752 	 -4.263385 
H 	 3.509450 	 -1.569571 	 2.407186 
H 	 3.868269 	 -2.463405 	 3.689732 
H 	 4.405996 	 0.470140 	 0.739841 
H 	 5.381129 	 -0.224730 	 1.689275 
H 	 -4.911838 	 -5.130517 	 -3.080018 
H 	 -3.699516 	 -5.837389 	 -2.539234 
H 	 0.711458 	 -6.603104 	 6.370774 
H 	 0.042331 	 -6.925588 	 5.035758 
H 	 -5.056856 	 6.787271 	 4.461141 
H 	 -5.996810 	 6.254059 	 5.604152 
H 	 -0.401337 	 2.233663 	 3.034266 
H 	 0.892024 	 2.336650 	 3.922264 
H 	 5.749969 	 0.839435 	 -3.147473 
H 	 6.791124 	 0.278929 	 -2.188614 
H 	 -3.396712 	 -6.964675 	 3.972449 
H 	 -3.690888 	 -5.512967 	 3.390376 
H 	 6.519847 	 -1.761975 	 6.397837 
H 	 6.189029 	 -0.983958 	 5.164339 
H 	 6.441698 	 3.573376 	 1.744006 
H 	 5.777478 	 2.093763 	 1.635453 
H 	 1.625828 	 0.122579 	 -5.339990 
H 	 0.795470 	 -1.080269 	 -5.610000 
H 	 -3.045485 	 -1.901323 	 -4.609202 
H 	 -2.002873 	 -1.248887 	 -5.634165 
H 	 -1.222255 	 3.919431 	 -3.116928 
H 	 -0.895627 	 3.843461 	 -1.657605 
H 	 4.495085 	 6.714252 	 -2.063208 
H 	 5.981064 	 6.225709 	 -2.096284 
H 	 -1.494907 	 -4.134660 	 -3.148732 
H 	 -1.183560 	 -2.718121 	 -3.747662 
H 	 -1.021332 	 -0.472180 	 6.337157 
H 	 -2.027509 	 0.692954 	 6.477563 
H 	 -2.250540 	 -1.133857 	 4.018846 
H 	 -2.211544 	 -1.967616 	 5.329004 
H 	 -5.609044 	 -7.035230 	 6.607843 
H 	 -6.292674 	 -6.288335 	 5.427845 
H 	 0.504232 	 -6.653999 	 0.285013 
H 	 0.916049 	 -7.157414 	 -1.102216 
H 	 -4.775828 	 5.567912 	 -2.782300 
H 	 -3.523298 	 5.329187 	 -1.875438 
H 	 -5.335976 	 -7.342402 	 -1.118196 
H 	 -5.343184 	 -6.910206 	 0.297679 
H 	 2.792764 	 5.322392 	 -3.732884 
H 	 3.560792 	 6.207168 	 -4.767870 
H 	 0.804333 	 2.815862 	 -2.212677 
H 	 0.883072 	 2.621914 	 -0.739288 
H 	 -4.328208 	 -7.337179 	 -4.554656 
H 	 -5.411433 	 7.474676 	 -5.746042 
H 	 -6.976837 	 -2.974599 	 -2.267931 
H 	 7.341858 	 -3.311668 	 -3.660455 
H 	 4.879911 	 7.451915 	 1.868898 
H 	 4.869994 	 6.700726 	 0.572630 
H 	 5.327254 	 7.401788 	 -4.890961 
H 	 5.872519 	 6.215674 	 -5.561228 
H 	 6.565073 	 -6.802280 	 6.881001 
H 	 5.663227 	 -5.623623 	 7.441570 
H 	 1.478552 	 -6.416204 	 -5.776978 
H 	 2.141136 	 7.084133 	 -5.989449 
H 	 -3.516440 	 0.910287 	 -1.115128 
H 	 -2.701743 	 1.838832 	 -1.984218 
H 	 0.126315 	 5.777702 	 -7.115299 
H 	 -0.752649 	 4.619110 	 -7.284636 
H 	 -5.305566 	 -0.849405 	 -4.190145 
H 	 -5.657205 	 -2.275731 	 -3.575444 
H 	 -5.904760 	 3.811402 	 -1.011991 
H 	 -6.726617 	 4.713275 	 -0.102101 
H 	 -4.236911 	 -1.534462 	 -1.016880 
H 	 -3.977256 	 -1.269678 	 -2.545097 
H 	 2.482624 	 -1.730238 	 6.392154 
H 	 4.013065 	 -2.005459 	 6.376078 
H 	 -0.344196 	 -1.792108 	 2.160817 
H 	 -0.563717 	 -0.897804 	 0.886618 
H 	 5.981952 	 -1.338783 	 -4.309752 
H 	 5.352326 	 -2.770825 	 -4.566301 
H 	 1.106487 	 2.177816 	 7.057970 
H 	 2.219297 	 1.171081 	 -7.356749 
H 	 -6.617870 	 5.730429 	 1.943359 
H 	 6.981268 	 6.242519 	 1.301182 
H 	 5.896982 	 2.748034 	 4.430095 
H 	 7.266691 	 3.031187 	 4.918776 
H 	 2.068526 	 1.366389 	 0.824348 
H 	 2.396529 	 2.798019 	 1.292148 
H 	 -5.994025 	 5.874911 	 -7.153924 
O 	 0.322163 	 -6.540845 	 2.410631 
O 	 -2.216509 	 -6.032285 	 -1.518847 
O 	 -4.280071 	 5.832145 	 1.653142 
O 	 -7.108137 	 -2.572560 	 -6.981820 
O 	 -5.536234 	 0.683687 	 -6.127190 
O 	 -2.206668 	 -3.859781 	 0.212569 
O 	 1.914551 	 -3.367011 	 -1.154116 
O 	 2.095364 	 -3.988550 	 1.944274 
O 	 2.427807 	 0.287769 	 -2.675113 
O 	 5.684839 	 -5.974111 	 -3.631509 
O 	 -1.863372 	 6.915262 	 1.182423 
O 	 0.420433 	 5.053447 	 0.610942 
O 	 3.389015 	 -7.192688 	 3.093877 
O 	 6.226941 	 5.186761 	 6.852290 
O 	 -6.942700 	 -3.435331 	 5.168751 
O 	 2.839082 	 6.166589 	 5.708712 
O 	 6.251578 	 -5.353496 	 3.988012 
O 	 -0.653325 	 -3.695342 	 2.518579 
O 	 7.138747 	 3.374792 	 -5.939061 
O 	 0.034080 	 3.181659 	 -4.519843 
O 	 0.842672 	 -2.900311 	 -5.975766 
O 	 -4.193383 	 -1.414821 	 7.054651 
O 	 -3.533319 	 4.156001 	 -6.982576 
O 	 3.714743 	 -2.292155 	 -3.190747 
O 	 -4.691535 	 -3.740220 	 3.488266 
O 	 -1.499374 	 2.741979 	 1.433727 
O 	 0.974756 	 -5.397366 	 -4.060984 
O 	 -6.895172 	 -1.002093 	 -0.959262 
O 	 3.536987 	 0.140219 	 -6.037453 
O 	 2.326959 	 -0.659712 	 0.546275 
O 	 -6.498702 	 1.298803 	 0.829838 
O 	 -2.711160 	 4.726291 	 4.024777 
O 	 3.961615 	 3.520234 	 -7.220351 
O 	 7.286199 	 -2.314697 	 2.431763 
O 	 0.698898 	 -0.920398 	 5.822551 
O 	 -2.005690 	 2.535506 	 5.750367 
O 	 5.465843 	 -2.240801 	 -0.809373 
O 	 -5.695099 	 1.332470 	 -2.689801 
O 	 -2.192858 	 6.062837 	 -5.531905 
O 	 2.950832 	 -4.767698 	 4.722141 
O 	 -2.659457 	 2.007370 	 -4.969006 
O 	 -1.138822 	 -3.381505 	 7.066721 
O 	 4.261832 	 -4.648738 	 -6.259298 
O 	 5.457100 	 -4.210655 	 1.469796 
O 	 -5.493997 	 0.461062 	 5.712137 
O 	 6.475979 	 6.299207 	 4.247366 
O 	 -4.450246 	 -4.373236 	 7.367034 
O 	 2.465553 	 4.496886 	 -1.787369 
O 	 -2.727016 	 0.310127 	 2.141629 
O 	 -6.234129 	 3.499304 	 3.481830 
O 	 3.608725 	 1.819569 	 4.444022 
O 	 2.839143 	 3.918202 	 2.647745 
O 	 3.744415 	 -5.934167 	 -1.873083 
O 	 -6.512587 	 -6.350994 	 2.092026 
O 	 -2.800061 	 6.598737 	 6.035459 
O 	 -5.553704 	 3.964050 	 -4.403300 
O 	 5.466957 	 2.700709 	 -1.417889 
O 	 -1.737773 	 -5.376998 	 -5.383840 
O 	 -7.217516 	 0.255044 	 3.395692 
O 	 -0.773221 	 -0.774293 	 -0.963486 
O 	 -5.764831 	 -3.744404 	 0.259549 
O 	 -6.995716 	 -5.985417 	 -5.158135 
O 	 -4.390252 	 3.326361 	 0.822584 
O 	 7.626878 	 6.188197 	 -2.965933 
O 	 0.332437 	 5.357310 	 4.407454 
O 	 6.376731 	 0.661179 	 -6.840442 
O 	 -4.748961 	 -1.497418 	 1.527617 
O 	 -0.414351 	 6.857485 	 -2.804869 
O 	 4.161389 	 2.201029 	 -4.056504 
O 	 3.957831 	 -1.568870 	 3.280677 
O 	 5.393930 	 0.380287 	 0.918085 
O 	 -4.058213 	 -5.454655 	 -3.396348 
O 	 -0.018785 	 -7.095469 	 6.010065 
O 	 -5.577762 	 6.002752 	 4.686102 
O 	 0.029422 	 1.901708 	 3.838394 
O 	 6.509561 	 0.225596 	 -3.127873 
O 	 -3.077586 	 -6.257114 	 3.393887 
O 	 5.777368 	 -1.297222 	 5.998471 
O 	 5.637430 	 3.050308 	 1.795651 
O 	 0.705588 	 -0.168347 	 -5.349688 
O 	 -2.217866 	 -1.428862 	 -4.712480 
O 	 -1.564429 	 4.251068 	 -2.264279 
O 	 5.128637 	 6.117613 	 -1.644184 
O 	 -0.920817 	 -3.337902 	 -3.001040 
O 	 -1.833742 	 -0.198486 	 6.819310 
O 	 -2.349499 	 -2.046113 	 4.369714 
O 	 -5.406167 	 -6.367679 	 5.868610 
O 	 1.174977 	 -6.497362 	 -0.427087 
O 	 -4.365524 	 5.819256 	 -1.919975 
O 	 -5.164381 	 -6.523865 	 -0.582008 
O 	 2.846137 	 5.513959 	 -4.691147 
O 	 0.281858 	 2.437108 	 -1.494310 
O 	 -4.491333 	 7.152690 	 -5.443159 
O 	 -6.853160 	 -3.595883 	 -3.045595 
O 	 5.348977 	 7.434878 	 1.002065 
O 	 5.035595 	 6.685573 	 -5.482944 
O 	 6.564327 	 -5.852780 	 7.095762 
O 	 1.940439 	 -6.974690 	 -6.458468 
O 	 -2.827476 	 1.608472 	 -1.058227 
O 	 0.066355 	 4.841848 	 -6.809401 
O 	 -4.901855 	 -1.678638 	 -3.849484 
O 	 -6.829427 	 4.093137 	 -0.880067 
O 	 -3.594877 	 -1.136008 	 -1.624960 
O 	 3.210354 	 -2.170187 	 6.911219 
O 	 -0.176923 	 -0.862877 	 1.821456 
O 	 6.065399 	 -2.158776 	 -4.831710 
O 	 1.730836 	 1.476862 	 6.756062 
O 	 7.616724 	 5.498532 	 1.269764 
O 	 6.403867 	 2.662139 	 5.249419 
O 	 2.363004 	 2.234743 	 0.484969 
O 	 -6.506593 	 6.479653 	 7.123580 
K 	 6.699601 	 -5.529654 	 -0.755963 
