333
conformation = 41
H 	 1.290297 	 -6.838465 	 2.800132 
H 	 0.090528 	 -5.876946 	 2.578003 
H 	 -1.994537 	 -6.820297 	 -0.607834 
H 	 -1.091925 	 -6.195618 	 -1.689752 
H 	 -4.295978 	 5.512130 	 2.640137 
H 	 -3.919841 	 6.438906 	 1.363789 
H 	 -6.145765 	 -3.450977 	 -7.038338 
H 	 -7.215374 	 -2.641630 	 -6.154047 
H 	 -5.880568 	 0.544613 	 -6.953121 
H 	 -4.518054 	 -0.086243 	 -6.624589 
H 	 -2.058406 	 -4.442765 	 -0.208978 
H 	 -2.366622 	 -2.954429 	 -0.606990 
H 	 0.689375 	 -3.112277 	 -1.712030 
H 	 1.603293 	 -3.239735 	 -0.432236 
H 	 3.043546 	 -3.798532 	 1.700055 
H 	 1.512654 	 -3.503379 	 2.055241 
H 	 2.497621 	 0.808048 	 -3.392224 
H 	 1.555199 	 -0.492538 	 -3.446703 
H 	 5.018192 	 -5.674034 	 -4.228455 
H 	 6.586114 	 -5.956298 	 -4.238284 
H 	 -1.336574 	 6.128829 	 0.804870 
H 	 -1.852484 	 7.334724 	 1.627442 
H 	 0.506505 	 5.550564 	 1.583261 
H 	 -0.373637 	 4.204277 	 1.414594 
H 	 3.696058 	 -6.337891 	 3.543727 
H 	 3.577413 	 7.093350 	 3.871769 
H 	 7.135305 	 5.355826 	 6.956393 
H 	 6.589254 	 3.930440 	 6.561886 
H 	 7.448780 	 -3.452019 	 6.201185 
H 	 -6.582815 	 -3.289395 	 4.855237 
H 	 2.430671 	 6.632243 	 6.379247 
H 	 3.323949 	 5.401713 	 6.186448 
H 	 5.737083 	 -6.641722 	 4.416298 
H 	 6.396007 	 -5.136361 	 4.549306 
H 	 -1.269395 	 -3.410289 	 3.223090 
H 	 -1.243380 	 -3.732714 	 1.744117 
H 	 6.331443 	 3.950019 	 -6.088562 
H 	 6.986405 	 2.456916 	 -6.127335 
H 	 0.659856 	 3.761237 	 -4.966627 
H 	 -0.096800 	 2.543503 	 -4.646349 
H 	 1.490846 	 -3.261683 	 -5.748862 
H 	 0.294967 	 -3.788565 	 -4.963460 
H 	 -3.420710 	 -1.297017 	 7.014267 
H 	 -4.469080 	 -2.392408 	 6.731260 
H 	 -3.784808 	 3.356961 	 7.180848 
H 	 -3.036105 	 4.275300 	 -6.773280 
H 	 3.010909 	 -2.649728 	 -3.810119 
H 	 3.425972 	 -1.359760 	 -3.155434 
H 	 -3.645594 	 -3.021687 	 4.080582 
H 	 -4.836082 	 -3.180091 	 3.097056 
H 	 -1.969420 	 2.720591 	 1.817402 
H 	 -1.480368 	 2.659995 	 0.355167 
H 	 0.208774 	 -6.277455 	 -4.559743 
H 	 1.649861 	 -5.918734 	 -3.979926 
H 	 7.331715 	 -1.397957 	 -0.384265 
H 	 -6.328107 	 -1.696154 	 -1.111374 
H 	 4.377625 	 -0.335951 	 -6.792960 
H 	 3.891352 	 0.658421 	 -5.576767 
H 	 2.832203 	 -0.689396 	 -0.402579 
H 	 1.829633 	 -0.517350 	 0.740147 
H 	 -5.356228 	 1.360299 	 0.449100 
H 	 -6.544158 	 0.648286 	 -0.199803 
H 	 -3.501028 	 4.612810 	 4.443087 
H 	 -2.215544 	 4.825847 	 3.534321 
H 	 3.408899 	 3.909951 	 -6.618145 
H 	 4.772523 	 3.837469 	 -7.484524 
H 	 -7.083885 	 -1.671727 	 2.264383 
H 	 -6.865635 	 -2.893650 	 1.294126 
H 	 0.952769 	 -0.848352 	 4.358022 
H 	 1.258279 	 0.058083 	 5.505374 
H 	 -2.752046 	 2.307521 	 4.995076 
H 	 -1.227836 	 2.365381 	 5.329573 
H 	 4.582461 	 -2.623825 	 -1.874251 
H 	 5.018253 	 -2.313689 	 -0.413866 
H 	 -5.257705 	 2.275054 	 -3.522910 
H 	 -6.266709 	 1.237269 	 -3.103724 
H 	 -1.302944 	 5.436391 	 -5.027101 
H 	 -2.671712 	 6.156159 	 -5.163864 
H 	 2.855497 	 -4.051854 	 4.983413 
H 	 2.503828 	 -4.339485 	 3.475704 
H 	 -2.199393 	 0.980679 	 -5.260676 
H 	 -3.369229 	 1.727690 	 -5.733505 
H 	 -0.302142 	 -3.076205 	 7.345776 
H 	 -1.478377 	 -4.046946 	 6.971172 
H 	 3.717200 	 -4.054513 	 -7.075305 
H 	 3.401780 	 -5.541517 	 -6.808383 
H 	 5.361838 	 -5.255932 	 2.233178 
H 	 6.062988 	 -3.909180 	 1.943604 
H 	 -5.390792 	 1.393479 	 5.662617 
H 	 -5.256883 	 -0.116216 	 5.859468 
H 	 6.895652 	 5.908703 	 3.288199 
H 	 6.025276 	 5.798655 	 4.663077 
H 	 -4.680450 	 -4.941161 	 6.600947 
H 	 -3.975142 	 -4.731348 	 -6.855777 
H 	 1.838365 	 3.749804 	 -1.943344 
H 	 2.976884 	 4.902129 	 -1.579091 
H 	 -3.091527 	 0.299401 	 3.078710 
H 	 -1.973328 	 -0.313199 	 2.180640 
H 	 -5.795650 	 3.748532 	 3.998731 
H 	 -5.863689 	 3.316604 	 2.521222 
H 	 3.029146 	 1.470637 	 4.911485 
H 	 3.995627 	 0.499071 	 3.988202 
H 	 3.281070 	 4.839921 	 2.119324 
H 	 3.564565 	 3.458736 	 2.625644 
H 	 2.875276 	 -5.065320 	 -1.499499 
H 	 2.498083 	 -6.535439 	 -1.825674 
H 	 -6.076520 	 -6.897421 	 2.627011 
H 	 7.471086 	 -6.207869 	 2.549215 
H 	 -1.749309 	 7.321487 	 6.306196 
H 	 -2.878747 	 6.581473 	 7.020965 
H 	 -6.347311 	 3.665689 	 -4.985185 
H 	 -4.925317 	 4.191540 	 -5.496373 
H 	 6.385573 	 2.787723 	 -1.841701 
H 	 5.124296 	 2.372127 	 -0.966085 
H 	 -2.725531 	 -5.538225 	 -5.035896 
H 	 -2.499299 	 -6.628277 	 -5.973711 
H 	 -6.691924 	 0.848631 	 2.842314 
H 	 -7.106892 	 0.193808 	 4.115723 
H 	 -1.293887 	 -1.251056 	 -1.589791 
H 	 -0.436675 	 -0.009337 	 -1.372737 
H 	 -5.130409 	 -3.359899 	 0.425658 
H 	 -5.469721 	 -4.724024 	 -0.137682 
H 	 -6.596991 	 -5.141922 	 -5.340459 
H 	 -6.929391 	 -6.205059 	 -6.432766 
H 	 -4.311343 	 4.211768 	 0.848986 
H 	 -3.767750 	 2.975294 	 0.093142 
H 	 -7.033534 	 6.472876 	 -4.330055 
H 	 -6.989497 	 5.387368 	 -3.292759 
H 	 1.328680 	 5.101567 	 4.553951 
H 	 -0.046347 	 5.336493 	 4.947142 
H 	 6.932593 	 0.419877 	 7.028068 
H 	 6.955470 	 0.045641 	 -6.291557 
H 	 -4.079299 	 -0.986955 	 1.681232 
H 	 -5.398249 	 -0.911632 	 0.730687 
H 	 0.599037 	 6.162689 	 -2.593050 
H 	 -0.950136 	 6.085849 	 -2.694267 
H 	 4.399097 	 2.656486 	 -3.342168 
H 	 3.583045 	 3.218935 	 -4.466574 
H 	 3.680036 	 -1.261867 	 2.534342 
H 	 5.016424 	 -1.839997 	 2.972679 
H 	 4.681961 	 0.252697 	 1.564672 
H 	 6.173093 	 -0.122301 	 1.667803 
H 	 -4.830534 	 -4.467293 	 -3.338613 
H 	 -3.824412 	 -5.655592 	 -2.873022 
H 	 0.407365 	 -6.705169 	 6.307874 
H 	 0.018000 	 -6.811999 	 4.836125 
H 	 -5.427461 	 6.449851 	 4.256460 
H 	 -5.911719 	 5.823650 	 5.541361 
H 	 -0.138791 	 1.951770 	 3.174933 
H 	 0.760191 	 2.150322 	 4.412649 
H 	 5.902388 	 0.957081 	 -3.715700 
H 	 6.431503 	 -0.165176 	 -2.757917 
H 	 -2.852881 	 -6.707334 	 4.303158 
H 	 -3.498790 	 -5.779469 	 3.280297 
H 	 6.645390 	 -1.847208 	 5.462803 
H 	 5.366911 	 -0.939443 	 5.141884 
H 	 6.280937 	 3.569255 	 1.442887 
H 	 5.891816 	 2.155936 	 1.358323 
H 	 1.495779 	 -0.303843 	 -6.029695 
H 	 0.441780 	 -0.494303 	 -5.011160 
H 	 -2.856815 	 -1.760824 	 -4.981163 
H 	 -1.630751 	 -1.454785 	 -5.890200 
H 	 -1.921045 	 3.890027 	 -3.012523 
H 	 -1.325438 	 4.036610 	 -1.667101 
H 	 4.663431 	 6.972831 	 -2.116438 
H 	 5.640873 	 5.809393 	 -2.021195 
H 	 -1.721865 	 -3.714350 	 -2.888647 
H 	 -1.131287 	 -2.649163 	 -3.827379 
H 	 -0.770181 	 -0.033943 	 7.117422 
H 	 -1.966265 	 0.846367 	 6.611576 
H 	 -2.403663 	 -1.244755 	 5.028288 
H 	 -1.795843 	 -2.657880 	 5.223642 
H 	 -5.802272 	 -6.924395 	 6.032710 
H 	 -6.270087 	 -5.910595 	 5.076571 
H 	 1.142820 	 -6.729726 	 0.320323 
H 	 0.364853 	 7.274200 	 -0.706099 
H 	 -4.614398 	 5.294125 	 -2.832493 
H 	 -3.362679 	 5.351293 	 -1.948797 
H 	 -4.851954 	 -7.033197 	 -1.386187 
H 	 -5.625931 	 -7.390062 	 -0.072475 
H 	 2.598686 	 4.923785 	 -3.787163 
H 	 3.404544 	 5.618727 	 -5.031140 
H 	 0.434738 	 1.964248 	 -2.195708 
H 	 0.761042 	 2.497530 	 -0.801436 
H 	 -5.106555 	 -7.174703 	 -4.966438 
H 	 -4.932133 	 7.045579 	 -6.218779 
H 	 -6.657451 	 -3.141287 	 -2.698028 
H 	 7.287018 	 -3.184395 	 -3.946767 
H 	 4.854502 	 7.214320 	 1.898026 
H 	 4.945289 	 6.778272 	 0.384502 
H 	 5.594806 	 7.322644 	 -5.394264 
H 	 5.519897 	 6.502699 	 -6.766780 
H 	 6.413770 	 -6.966286 	 6.885214 
H 	 5.580669 	 -5.639503 	 7.018290 
H 	 1.854885 	 -6.821282 	 -6.013999 
H 	 3.233417 	 -7.256899 	 -6.526253 
H 	 -3.106037 	 0.806615 	 -1.453352 
H 	 -3.665287 	 2.148387 	 -1.844868 
H 	 0.503974 	 5.480346 	 -6.719274 
H 	 -0.676302 	 4.921642 	 7.357673 
H 	 -5.242393 	 -0.952527 	 -4.725482 
H 	 -5.472519 	 -2.500592 	 -4.642050 
H 	 -6.148459 	 3.377519 	 -0.817815 
H 	 7.621401 	 4.429499 	 -0.640232 
H 	 -3.851643 	 -1.316272 	 -0.815468 
H 	 -3.965808 	 -1.158980 	 -2.393157 
H 	 2.387895 	 -1.875031 	 6.144440 
H 	 3.881634 	 -2.460644 	 6.355459 
H 	 -0.114574 	 -1.997117 	 1.853547 
H 	 -0.285479 	 -1.228739 	 0.415130 
H 	 6.195314 	 -1.379173 	 -4.392609 
H 	 5.409095 	 -2.574167 	 -4.556944 
H 	 1.710617 	 2.808490 	 6.493141 
H 	 2.620319 	 1.722850 	 7.118634 
H 	 -6.590392 	 5.984544 	 1.354973 
H 	 6.738194 	 6.095203 	 1.308587 
H 	 5.537796 	 2.359954 	 4.705510 
H 	 6.728469 	 2.961139 	 3.986608 
H 	 2.725951 	 1.667269 	 0.555568 
H 	 2.094435 	 3.045062 	 1.055277 
H 	 -6.010512 	 6.064554 	 7.323935 
O 	 0.322497 	 -6.796398 	 2.716674 
O 	 -1.993956 	 -6.116547 	 -1.300432 
O 	 -4.628809 	 5.979246 	 1.814248 
O 	 -6.876718 	 -2.810454 	 -7.046697 
O 	 -5.091038 	 0.662387 	 -6.360936 
O 	 -2.302812 	 -3.546700 	 0.155435 
O 	 1.619292 	 -3.180866 	 -1.419747 
O 	 2.138582 	 -4.171874 	 1.675541 
O 	 2.208613 	 -0.017593 	 -2.908144 
O 	 5.727980 	 -6.067003 	 -3.730567 
O 	 -2.016440 	 6.820083 	 0.804312 
O 	 0.139435 	 4.901010 	 0.954854 
O 	 3.422289 	 -7.176577 	 3.094253 
O 	 6.263532 	 4.819172 	 6.851879 
O 	 7.493882 	 -3.649752 	 5.221375 
O 	 2.855781 	 6.115448 	 5.684532 
O 	 6.138683 	 -5.906328 	 3.966649 
O 	 -0.676883 	 -3.805445 	 2.574406 
O 	 6.872317 	 3.292603 	 -5.581950 
O 	 0.230681 	 3.334235 	 -4.200302 
O 	 0.544615 	 -3.065595 	 -5.603939 
O 	 -4.373947 	 -1.439018 	 6.937233 
O 	 -3.936193 	 4.050551 	 -7.057360 
O 	 3.848347 	 -2.242302 	 -3.478223 
O 	 -4.380185 	 -3.644130 	 3.792870 
O 	 -1.159793 	 2.602061 	 1.283700 
O 	 1.051893 	 -5.711123 	 -4.714369 
O 	 -7.095934 	 -1.079625 	 -1.207302 
O 	 3.597750 	 -0.008295 	 -6.283618 
O 	 2.781778 	 -0.672002 	 0.566905 
O 	 -6.282719 	 1.096854 	 0.624049 
O 	 -3.081139 	 4.372761 	 3.573954 
O 	 3.826418 	 3.555975 	 -7.445627 
O 	 7.379615 	 -2.221381 	 1.567636 
O 	 1.177705 	 -0.883989 	 5.309722 
O 	 -2.096314 	 2.268977 	 5.752334 
O 	 5.342534 	 -2.730826 	 -1.224685 
O 	 -5.297133 	 1.369956 	 -3.134291 
O 	 -1.860130 	 5.918029 	 -5.630412 
O 	 2.649793 	 -4.765438 	 4.347296 
O 	 -2.608148 	 1.867603 	 -5.151037 
O 	 -1.174043 	 -3.129414 	 6.913013 
O 	 4.090092 	 -4.838465 	 -6.662064 
O 	 5.325907 	 -4.477315 	 1.639303 
O 	 -5.739461 	 0.570625 	 5.320370 
O 	 6.176509 	 6.325679 	 3.840511 
O 	 -4.677618 	 -4.394983 	 -7.455401 
O 	 2.484601 	 4.409961 	 -2.248329 
O 	 -2.892412 	 -0.007762 	 2.183739 
O 	 -6.116101 	 3.019602 	 3.397848 
O 	 3.731024 	 1.402640 	 4.208422 
O 	 2.868292 	 4.144856 	 2.683362 
O 	 3.258427 	 -5.899461 	 -1.887983 
O 	 -6.640180 	 -6.390498 	 2.008690 
O 	 -2.575530 	 6.812972 	 6.114052 
O 	 -5.533544 	 4.117110 	 -4.711411 
O 	 5.389117 	 2.872321 	 -1.766772 
O 	 -2.060730 	 -5.802131 	 -5.694970 
O 	 -7.198231 	 0.077094 	 3.160754 
O 	 -0.394689 	 -0.990813 	 -1.274717 
O 	 -5.809094 	 -3.791860 	 -0.140390 
O 	 -6.641662 	 -6.092420 	 -5.510154 
O 	 -4.597596 	 3.397374 	 0.401336 
O 	 -7.234563 	 6.336711 	 -3.387971 
O 	 0.422636 	 4.784632 	 4.291731 
O 	 7.110947 	 0.737069 	 -6.946026 
O 	 -4.696016 	 -1.485777 	 1.074481 
O 	 -0.201719 	 6.722005 	 -2.752699 
O 	 3.804539 	 2.361378 	 -4.060211 
O 	 4.154589 	 -1.529342 	 3.354502 
O 	 5.426754 	 -0.027382 	 1.000989 
O 	 -4.311660 	 -5.221410 	 -3.655994 
O 	 -0.138410 	 -7.207027 	 5.727412 
O 	 -5.626254 	 5.572464 	 4.623913 
O 	 0.093273 	 1.557229 	 4.036053 
O 	 6.477104 	 0.161843 	 -3.676756 
O 	 -3.120308 	 -6.665391 	 3.365471 
O 	 5.932222 	 -1.302608 	 5.846769 
O 	 5.577458 	 2.982031 	 1.769397 
O 	 0.728904 	 0.144997 	 -5.680090 
O 	 -2.144639 	 -1.119946 	 -5.116476 
O 	 -2.016584 	 4.441574 	 -2.225972 
O 	 4.789134 	 6.102614 	 -1.680228 
O 	 -0.924395 	 -3.142745 	 -2.987115 
O 	 -1.672408 	 -0.105842 	 6.731087 
O 	 -2.322160 	 -2.127606 	 4.583621 
O 	 -5.431079 	 -6.336376 	 5.342239 
O 	 1.175392 	 -7.069826 	 -0.595867 
O 	 -4.242596 	 5.781462 	 -2.081685 
O 	 -5.296293 	 -6.638583 	 -0.597234 
O 	 2.730376 	 4.959105 	 -4.773394 
O 	 0.047979 	 2.474286 	 -1.476359 
O 	 -4.352845 	 7.298920 	 -5.432920 
O 	 -6.974042 	 -3.749914 	 -3.409456 
O 	 5.411411 	 7.264038 	 1.090962 
O 	 5.002468 	 6.960567 	 -6.086674 
O 	 6.453318 	 -6.018975 	 6.857913 
O 	 2.324157 	 -7.106906 	 -6.861843 
O 	 -3.158137 	 1.719729 	 -1.118984 
O 	 0.191030 	 4.668706 	 -7.150090 
O 	 -4.834718 	 -1.771159 	 -4.370139 
O 	 -6.871019 	 3.807620 	 -1.297852 
O 	 -3.326986 	 -1.256171 	 -1.643609 
O 	 2.943314 	 -2.561912 	 6.587337 
O 	 -0.118205 	 -1.125153 	 1.391585 
O 	 6.298498 	 -2.261513 	 -4.841262 
O 	 1.896110 	 1.837188 	 6.486395 
O 	 7.487893 	 5.475797 	 1.329804 
O 	 6.344848 	 2.856134 	 4.898790 
O 	 1.914888 	 2.212635 	 0.490397 
O 	 -6.761528 	 6.646662 	 7.050743 
K 	 6.561518 	 -5.405623 	 -0.872403 
