333
conformation = 42
H 	 1.341427 	 -6.860685 	 2.604351 
H 	 0.125385 	 -5.901484 	 2.502721 
H 	 -2.090406 	 -6.820874 	 -0.574413 
H 	 -1.057870 	 -6.186459 	 -1.653738 
H 	 -4.186255 	 5.466164 	 2.430139 
H 	 -3.977137 	 6.509056 	 1.292275 
H 	 -6.116761 	 -3.507300 	 -7.048866 
H 	 7.626203 	 -2.778876 	 -6.192561 
H 	 -5.858934 	 0.603503 	 -6.880523 
H 	 -4.552601 	 -0.127526 	 -6.810881 
H 	 -2.025269 	 -4.419594 	 -0.245069 
H 	 -2.371536 	 -2.958917 	 -0.648779 
H 	 0.676000 	 -3.162045 	 -1.774044 
H 	 1.566384 	 -3.245659 	 -0.508100 
H 	 3.065671 	 -3.841638 	 1.581480 
H 	 1.577767 	 -3.587063 	 2.034472 
H 	 2.391025 	 0.715726 	 -3.512728 
H 	 1.455911 	 -0.529549 	 -3.366210 
H 	 5.013815 	 -5.692402 	 -4.286358 
H 	 6.583582 	 -6.057528 	 -4.264215 
H 	 -1.339082 	 6.054010 	 0.751025 
H 	 -1.875526 	 7.166444 	 1.613358 
H 	 0.320537 	 5.611134 	 1.598180 
H 	 -0.344768 	 4.188064 	 1.444359 
H 	 3.619117 	 -6.403704 	 3.554937 
H 	 3.448531 	 7.023475 	 3.776780 
H 	 7.075850 	 5.367444 	 6.966701 
H 	 6.572638 	 3.850909 	 6.583130 
H 	 7.551151 	 -3.498294 	 6.132052 
H 	 -6.574214 	 -3.420911 	 4.814941 
H 	 2.453664 	 6.589217 	 6.366360 
H 	 3.310424 	 5.364806 	 6.180656 
H 	 5.716566 	 -6.741394 	 4.388566 
H 	 6.342145 	 -5.299562 	 4.580794 
H 	 -1.313775 	 -3.467751 	 3.214370 
H 	 -1.214963 	 -3.791845 	 1.741353 
H 	 6.416671 	 3.914508 	 -6.113917 
H 	 7.018692 	 2.526704 	 -6.181289 
H 	 0.684026 	 3.698493 	 -5.000687 
H 	 -0.023439 	 2.432932 	 -4.606871 
H 	 1.438676 	 -3.322999 	 -5.920462 
H 	 0.426652 	 -3.884754 	 -4.977394 
H 	 -3.427601 	 -1.418398 	 7.079723 
H 	 -4.423413 	 -2.496865 	 6.937095 
H 	 -3.809538 	 3.253710 	 7.190816 
H 	 -3.050781 	 4.175039 	 -6.776759 
H 	 3.104596 	 -2.841794 	 -3.851261 
H 	 3.314465 	 -1.526683 	 -3.206426 
H 	 -3.704027 	 -3.040046 	 4.124253 
H 	 -4.856493 	 -3.209411 	 3.063424 
H 	 -1.926035 	 2.639962 	 1.842309 
H 	 -1.430141 	 2.622617 	 0.318090 
H 	 0.211756 	 -6.146488 	 -4.572383 
H 	 1.658927 	 -6.046194 	 -4.052711 
H 	 7.289297 	 -1.392114 	 -0.475765 
H 	 -6.352102 	 -1.729019 	 -1.194006 
H 	 4.444680 	 -0.300502 	 -6.753050 
H 	 3.849292 	 0.550691 	 -5.653264 
H 	 2.933635 	 -0.674134 	 -0.421836 
H 	 1.861059 	 -0.549119 	 0.732491 
H 	 -5.371353 	 1.330339 	 0.391641 
H 	 -6.577301 	 0.687417 	 -0.302126 
H 	 -3.399148 	 4.526470 	 4.413239 
H 	 -2.283045 	 4.825743 	 3.435639 
H 	 3.358967 	 3.834701 	 -6.692940 
H 	 4.698756 	 3.870276 	 -7.525624 
H 	 -7.125636 	 -1.680913 	 2.117693 
H 	 -6.959803 	 -3.030486 	 1.223159 
H 	 0.956625 	 -0.931587 	 4.297866 
H 	 1.275668 	 0.051735 	 5.452425 
H 	 -2.644902 	 2.408874 	 4.950384 
H 	 -1.254414 	 2.301258 	 5.239442 
H 	 4.532852 	 -2.740984 	 -1.816275 
H 	 5.109320 	 -2.476445 	 -0.392914 
H 	 -5.227034 	 2.185879 	 -3.717930 
H 	 -6.223119 	 1.181106 	 -3.097469 
H 	 -1.257147 	 5.367643 	 -5.036827 
H 	 -2.642444 	 6.126236 	 -5.143872 
H 	 2.830119 	 -4.099409 	 4.973632 
H 	 2.571239 	 -4.327082 	 3.464972 
H 	 -2.207030 	 0.929842 	 -5.347095 
H 	 -3.424132 	 1.770478 	 -5.702356 
H 	 -0.367754 	 -3.036898 	 -7.530343 
H 	 -1.344796 	 -4.120958 	 7.055292 
H 	 3.712590 	 -4.082019 	 -7.186219 
H 	 3.337391 	 -5.492341 	 -6.923852 
H 	 5.444890 	 -5.373278 	 2.079458 
H 	 5.962991 	 -3.882878 	 1.956063 
H 	 -5.427454 	 1.468054 	 5.446446 
H 	 -5.311683 	 -0.056416 	 5.918489 
H 	 6.783545 	 5.875672 	 3.214825 
H 	 6.098913 	 5.675391 	 4.544612 
H 	 -4.694844 	 -4.829537 	 6.528917 
H 	 -3.898989 	 -4.699730 	 -6.945870 
H 	 1.900720 	 3.697093 	 -1.879418 
H 	 2.985572 	 4.912595 	 -1.697326 
H 	 -3.006615 	 0.173226 	 3.107458 
H 	 -1.949381 	 -0.416235 	 2.191149 
H 	 -5.798634 	 3.564155 	 3.980710 
H 	 -5.802650 	 3.273417 	 2.452416 
H 	 3.046979 	 1.277509 	 4.833918 
H 	 3.831566 	 0.403597 	 3.831722 
H 	 3.281854 	 4.926508 	 2.255498 
H 	 3.542137 	 3.433193 	 2.415223 
H 	 2.760675 	 -5.144732 	 -1.554065 
H 	 2.536034 	 -6.608905 	 -1.802970 
H 	 -5.977579 	 -6.891490 	 2.501345 
H 	 7.501641 	 -6.301903 	 2.604141 
H 	 -1.770105 	 7.298997 	 6.218901 
H 	 -2.858917 	 6.543049 	 6.990180 
H 	 -6.397742 	 3.677360 	 -5.003290 
H 	 -5.007040 	 4.088685 	 -5.570088 
H 	 6.365340 	 2.855314 	 -1.818386 
H 	 5.251730 	 2.335356 	 -1.003848 
H 	 -2.730521 	 -5.519323 	 -5.090166 
H 	 -2.577460 	 -6.666570 	 -6.046453 
H 	 -6.654127 	 0.710190 	 2.685344 
H 	 -7.117918 	 0.098465 	 4.080760 
H 	 -1.181866 	 -1.316604 	 -1.732377 
H 	 -0.363670 	 -0.046527 	 -1.384821 
H 	 -5.136606 	 -3.492811 	 0.420540 
H 	 -5.553907 	 -4.789939 	 -0.125990 
H 	 -6.676182 	 -5.167117 	 -5.388609 
H 	 -6.919519 	 -6.224668 	 -6.501189 
H 	 -4.414362 	 4.253108 	 0.833056 
H 	 -3.813002 	 2.984970 	 -0.013383 
H 	 -6.900152 	 6.435473 	 -4.355846 
H 	 -6.960513 	 5.394501 	 -3.313385 
H 	 1.292877 	 5.054420 	 4.532145 
H 	 -0.152315 	 5.210365 	 4.845983 
H 	 7.003054 	 0.299467 	 7.034458 
H 	 7.071911 	 -0.084674 	 -6.397853 
H 	 -4.170505 	 -0.972254 	 1.627102 
H 	 -5.391359 	 -0.911483 	 0.679645 
H 	 0.543644 	 6.021892 	 -2.627419 
H 	 -0.893264 	 5.998186 	 -2.873768 
H 	 4.414764 	 2.661978 	 -3.410196 
H 	 3.537764 	 3.147696 	 -4.556001 
H 	 3.653682 	 -1.232550 	 2.577693 
H 	 5.070058 	 -1.710398 	 2.968879 
H 	 4.746426 	 0.164865 	 1.593474 
H 	 6.206400 	 -0.061736 	 1.573962 
H 	 -4.897569 	 -4.545611 	 -3.338102 
H 	 -3.975026 	 -5.620425 	 -2.902714 
H 	 0.510690 	 -6.661035 	 6.222821 
H 	 0.051738 	 -6.881106 	 4.760351 
H 	 -5.531448 	 6.424217 	 4.223555 
H 	 -5.892890 	 5.753744 	 5.520382 
H 	 -0.153932 	 1.793915 	 3.111696 
H 	 0.765783 	 2.153910 	 4.325323 
H 	 5.835434 	 0.862803 	 -3.782990 
H 	 6.550808 	 -0.123518 	 -2.794750 
H 	 -3.047789 	 -6.894393 	 4.298861 
H 	 -3.641445 	 -5.895214 	 3.246554 
H 	 6.613448 	 -1.847605 	 5.329812 
H 	 5.417367 	 -0.964139 	 5.058754 
H 	 6.218454 	 3.610198 	 1.351150 
H 	 5.810642 	 2.061271 	 1.366929 
H 	 1.551111 	 -0.339425 	 -6.075091 
H 	 0.298835 	 -0.513200 	 -5.145045 
H 	 -2.865621 	 -1.761614 	 -4.949334 
H 	 -1.687028 	 -1.380466 	 -6.015587 
H 	 -1.948822 	 3.814927 	 -3.052975 
H 	 -1.423586 	 3.957206 	 -1.628882 
H 	 4.602062 	 6.896512 	 -2.216032 
H 	 5.612612 	 5.709248 	 -2.060227 
H 	 -1.707948 	 -3.751902 	 -2.923808 
H 	 -1.153439 	 -2.602109 	 -3.761822 
H 	 -0.739451 	 0.058013 	 7.047365 
H 	 -1.962665 	 0.765806 	 6.517484 
H 	 -2.172066 	 -1.301415 	 4.963651 
H 	 -1.628962 	 -2.644782 	 5.141777 
H 	 -5.739905 	 -7.046335 	 5.970730 
H 	 -6.316000 	 -5.913479 	 5.129257 
H 	 1.124099 	 -6.781218 	 0.286136 
H 	 0.364834 	 7.261977 	 -0.726197 
H 	 -4.630407 	 5.298489 	 -2.895230 
H 	 -3.406921 	 5.298680 	 -1.935537 
H 	 -4.934259 	 -7.123793 	 -1.419688 
H 	 -5.779832 	 -7.480819 	 -0.282243 
H 	 2.497159 	 4.947159 	 -3.864177 
H 	 3.365447 	 5.569979 	 -5.052263 
H 	 0.519137 	 1.988652 	 -2.230643 
H 	 0.650924 	 2.401802 	 -0.736186 
H 	 -4.991373 	 -7.147283 	 -4.905578 
H 	 -4.869122 	 6.938035 	 -6.195542 
H 	 -6.644985 	 -3.218743 	 -2.761494 
H 	 7.381110 	 -3.177132 	 -4.002015 
H 	 4.888393 	 7.166662 	 1.881005 
H 	 4.861440 	 6.654668 	 0.433252 
H 	 5.721059 	 7.265902 	 -5.578650 
H 	 5.499581 	 6.354603 	 -6.762112 
H 	 6.410806 	 -7.057482 	 6.680583 
H 	 5.556883 	 -5.694867 	 6.970070 
H 	 1.913092 	 -6.919273 	 -6.098095 
H 	 3.306584 	 -7.287437 	 -6.687284 
H 	 -3.180956 	 0.720656 	 -1.420972 
H 	 -3.783212 	 2.044880 	 -1.820763 
H 	 0.553952 	 5.424686 	 -6.797264 
H 	 -0.585387 	 4.965757 	 -7.571582 
H 	 -5.174964 	 -0.969833 	 -4.830079 
H 	 -5.473518 	 -2.461118 	 -4.705096 
H 	 -6.175103 	 3.289499 	 -0.887357 
H 	 -7.109575 	 4.407943 	 -0.710367 
H 	 -3.837450 	 -1.431316 	 -0.839045 
H 	 -3.925814 	 -1.227511 	 -2.401658 
H 	 2.425429 	 -1.972818 	 5.994405 
H 	 3.889994 	 -2.394940 	 6.375985 
H 	 0.006494 	 -2.053907 	 1.718882 
H 	 -0.225173 	 -1.337258 	 0.358431 
H 	 6.361461 	 -1.419821 	 -4.456897 
H 	 5.470106 	 -2.734261 	 -4.611399 
H 	 1.678389 	 2.766403 	 6.519863 
H 	 2.692109 	 1.717510 	 7.002410 
H 	 -6.558412 	 5.913401 	 1.274875 
H 	 6.769975 	 6.132032 	 1.173551 
H 	 5.460747 	 2.405555 	 4.592428 
H 	 6.751346 	 2.926311 	 3.989076 
H 	 2.681401 	 1.619027 	 0.688542 
H 	 2.038399 	 2.938394 	 0.997919 
H 	 -6.027132 	 6.056189 	 -7.572971 
O 	 0.346286 	 -6.862057 	 2.737625 
O 	 -1.964737 	 -6.180231 	 -1.320992 
O 	 -4.674410 	 5.957582 	 1.761948 
O 	 -6.863372 	 -2.860341 	 -7.080190 
O 	 -5.025104 	 0.621095 	 -6.387086 
O 	 -2.319737 	 -3.569508 	 0.123298 
O 	 1.596931 	 -3.206806 	 -1.468506 
O 	 2.154867 	 -4.222397 	 1.595043 
O 	 2.209000 	 -0.062112 	 -2.965849 
O 	 5.750978 	 -6.117927 	 -3.787972 
O 	 -2.031024 	 6.787384 	 0.722606 
O 	 0.134879 	 4.893136 	 0.943994 
O 	 3.416638 	 -7.227606 	 3.063337 
O 	 6.274222 	 4.744257 	 6.798420 
O 	 7.451398 	 -3.708545 	 5.179634 
O 	 2.877150 	 6.057303 	 5.641235 
O 	 6.141079 	 -5.976695 	 3.930540 
O 	 -0.679606 	 -3.845751 	 2.546409 
O 	 6.837168 	 3.245719 	 -5.567094 
O 	 0.239564 	 3.312201 	 -4.213746 
O 	 0.541662 	 -3.128439 	 -5.577727 
O 	 -4.407730 	 -1.500729 	 6.875202 
O 	 -3.970674 	 4.016361 	 -7.109039 
O 	 3.829899 	 -2.267010 	 -3.549850 
O 	 -4.363449 	 -3.680018 	 3.789479 
O 	 -1.149952 	 2.526401 	 1.244471 
O 	 1.063519 	 -5.812670 	 -4.798679 
O 	 -7.103504 	 -1.133537 	 -1.257462 
O 	 3.612952 	 -0.049949 	 -6.338444 
O 	 2.806499 	 -0.722301 	 0.543345 
O 	 -6.266895 	 1.017172 	 0.581525 
O 	 -3.089909 	 4.279450 	 3.526185 
O 	 3.800080 	 3.534005 	 -7.495195 
O 	 7.368048 	 -2.272051 	 1.457132 
O 	 1.222237 	 -0.918035 	 5.231869 
O 	 -2.124765 	 2.221639 	 5.733344 
O 	 5.333717 	 -2.820734 	 -1.283842 
O 	 -5.274367 	 1.340058 	 -3.215479 
O 	 -1.837795 	 5.873502 	 -5.664274 
O 	 2.612740 	 -4.796027 	 4.312793 
O 	 -2.574822 	 1.822727 	 -5.185096 
O 	 -1.209171 	 -3.159471 	 6.843986 
O 	 4.077404 	 -4.888503 	 -6.718899 
O 	 5.300746 	 -4.512284 	 1.623764 
O 	 -5.724855 	 0.541745 	 5.271227 
O 	 6.128993 	 6.281111 	 3.791980 
O 	 -4.672854 	 -4.465424 	 -7.472777 
O 	 2.458895 	 4.375478 	 -2.313678 
O 	 -2.887282 	 -0.056318 	 2.166488 
O 	 -6.095786 	 2.917276 	 3.332134 
O 	 3.754734 	 1.332414 	 4.163875 
O 	 2.887909 	 4.133864 	 2.652752 
O 	 3.204707 	 -5.925048 	 -1.919752 
O 	 -6.641004 	 -6.432284 	 1.967858 
O 	 -2.585944 	 6.773000 	 6.088543 
O 	 -5.513505 	 4.075564 	 -4.743955 
O 	 5.390854 	 2.829422 	 -1.827488 
O 	 -2.084289 	 -5.869715 	 -5.756290 
O 	 -7.215758 	 0.029042 	 3.101038 
O 	 -0.353725 	 -1.012989 	 -1.331289 
O 	 -5.788077 	 -3.838338 	 -0.237770 
O 	 -6.622827 	 -6.130297 	 -5.557478 
O 	 -4.600315 	 3.398387 	 0.379151 
O 	 -7.255747 	 6.316801 	 -3.447836 
O 	 0.427560 	 4.689198 	 4.251142 
O 	 7.149151 	 0.687796 	 -6.995939 
O 	 -4.686042 	 -1.519206 	 0.984368 
O 	 -0.174562 	 6.670885 	 -2.784493 
O 	 3.783000 	 2.306326 	 -4.087948 
O 	 4.182472 	 -1.575177 	 3.316283 
O 	 5.454780 	 -0.099509 	 0.970469 
O 	 -4.311744 	 -5.240172 	 -3.701085 
O 	 -0.102672 	 -7.235315 	 5.667808 
O 	 -5.612029 	 5.514972 	 4.600011 
O 	 0.109009 	 1.489296 	 4.011389 
O 	 6.481846 	 0.139042 	 -3.748249 
O 	 -3.101902 	 -6.721795 	 3.328185 
O 	 5.928437 	 -1.317214 	 5.811060 
O 	 5.587091 	 2.953060 	 1.727326 
O 	 0.722436 	 0.138744 	 -5.732987 
O 	 -2.117649 	 -1.148007 	 -5.186023 
O 	 -2.022250 	 4.405593 	 -2.264472 
O 	 4.768372 	 6.084607 	 -1.714338 
O 	 -0.937858 	 -3.177907 	 -3.019405 
O 	 -1.627606 	 -0.134079 	 6.707906 
O 	 -2.304131 	 -2.185165 	 4.573773 
O 	 -5.437514 	 -6.358408 	 5.267508 
O 	 1.180853 	 -7.151937 	 -0.615626 
O 	 -4.242666 	 5.771236 	 -2.120514 
O 	 -5.300299 	 -6.694017 	 -0.624240 
O 	 2.728942 	 4.873652 	 -4.829923 
O 	 0.018751 	 2.428843 	 -1.507100 
O 	 -4.345910 	 7.273076 	 -5.479187 
O 	 -6.966527 	 -3.797288 	 -3.453566 
O 	 5.411276 	 7.211835 	 1.037468 
O 	 4.988917 	 6.934298 	 -6.150211 
O 	 6.453222 	 -6.062298 	 6.805728 
O 	 2.347942 	 -7.155414 	 -6.923482 
O 	 -3.145116 	 1.685063 	 -1.177230 
O 	 0.240654 	 4.593379 	 -7.225395 
O 	 -4.842553 	 -1.813746 	 -4.438753 
O 	 -6.909327 	 3.743122 	 -1.392767 
O 	 -3.310393 	 -1.312889 	 -1.664252 
O 	 2.940781 	 -2.648205 	 6.517611 
O 	 -0.112837 	 -1.174073 	 1.339295 
O 	 6.315425 	 -2.310326 	 -4.896854 
O 	 1.904787 	 1.841812 	 6.427361 
O 	 7.481128 	 5.418771 	 1.306014 
O 	 6.333766 	 2.822940 	 4.850503 
O 	 1.898903 	 2.166414 	 0.459619 
O 	 -6.777939 	 6.601954 	 7.024882 
K 	 6.548410 	 -5.437237 	 -0.914016 
