333
conformation = 45
H 	 1.357569 	 -6.878648 	 3.000153 
H 	 0.036912 	 -6.048115 	 2.972740 
H 	 -2.149066 	 -6.842074 	 -0.327888 
H 	 -1.013674 	 -6.381857 	 -1.225253 
H 	 -4.188687 	 5.540535 	 2.546094 
H 	 -4.394569 	 6.710278 	 1.419547 
H 	 -6.240643 	 -3.576360 	 -6.487655 
H 	 7.162118 	 -3.059443 	 -6.421730 
H 	 -5.766456 	 1.053927 	 -6.112579 
H 	 -4.970264 	 -0.082190 	 -6.786214 
H 	 -2.282863 	 -4.390217 	 -0.120266 
H 	 -2.394261 	 -2.829909 	 -0.268943 
H 	 0.610716 	 -3.116836 	 -1.625465 
H 	 1.426355 	 -3.242550 	 -0.284987 
H 	 3.067158 	 -3.916154 	 1.544805 
H 	 1.702090 	 -3.588226 	 2.201873 
H 	 2.249730 	 0.500001 	 -3.551117 
H 	 1.215813 	 -0.308984 	 -2.623570 
H 	 5.160023 	 -5.553222 	 -4.086207 
H 	 6.615922 	 -6.212854 	 -4.081487 
H 	 -1.516983 	 6.057551 	 0.718945 
H 	 -1.994343 	 7.043082 	 1.811429 
H 	 0.239361 	 5.588162 	 2.057729 
H 	 -0.121940 	 4.144112 	 1.594950 
H 	 3.249528 	 -6.457802 	 3.884703 
H 	 3.103751 	 6.989040 	 4.041739 
H 	 6.899273 	 5.430191 	 7.044501 
H 	 6.666557 	 4.062919 	 6.423089 
H 	 7.537584 	 -3.683979 	 6.369256 
H 	 -6.714794 	 -3.819972 	 4.958528 
H 	 2.464234 	 6.553211 	 6.555060 
H 	 3.244543 	 5.226823 	 6.328703 
H 	 6.005948 	 -7.016442 	 4.283419 
H 	 6.252917 	 -5.519772 	 5.026708 
H 	 -1.322648 	 -3.509794 	 3.482125 
H 	 -1.313006 	 -3.857034 	 1.999750 
H 	 6.673520 	 4.058445 	 -5.745788 
H 	 6.909810 	 2.485532 	 -5.776225 
H 	 0.742035 	 3.612361 	 -4.727858 
H 	 -0.065277 	 2.475095 	 -4.224553 
H 	 1.019081 	 -3.239468 	 -6.026135 
H 	 0.748391 	 -4.032549 	 -4.742320 
H 	 -3.522174 	 -1.493367 	 7.005870 
H 	 -4.753455 	 -2.225283 	 -7.154214 
H 	 -4.002600 	 3.113957 	 -7.170469 
H 	 -3.278791 	 4.163783 	 -6.384781 
H 	 3.283891 	 -3.119539 	 -3.447621 
H 	 2.935630 	 -1.622965 	 -3.294187 
H 	 -3.871415 	 -2.984298 	 4.618439 
H 	 -4.665597 	 -3.205834 	 3.315139 
H 	 -1.991617 	 2.338589 	 1.983579 
H 	 -1.444604 	 2.234236 	 0.606351 
H 	 0.081371 	 -6.082660 	 -4.476059 
H 	 1.509696 	 -6.104591 	 -3.773393 
H 	 7.082892 	 -1.473312 	 -0.399356 
H 	 -6.457027 	 -1.792151 	 -0.880603 
H 	 4.546661 	 -0.186014 	 -6.429668 
H 	 3.665484 	 0.646565 	 -5.401691 
H 	 3.055034 	 -0.498072 	 -0.082350 
H 	 1.857927 	 -0.810747 	 0.874704 
H 	 -5.628037 	 1.679067 	 0.653717 
H 	 -6.652620 	 0.728843 	 -0.069778 
H 	 -3.590785 	 4.641385 	 4.476559 
H 	 -2.321411 	 4.658370 	 3.528591 
H 	 3.236502 	 3.832554 	 -6.448856 
H 	 4.555023 	 4.092799 	 7.537650 
H 	 -7.201464 	 -1.700636 	 2.135100 
H 	 -6.988926 	 -3.022510 	 1.365956 
H 	 0.868485 	 -0.884256 	 4.507606 
H 	 1.136060 	 0.007192 	 5.640506 
H 	 -2.708176 	 2.747956 	 5.251296 
H 	 -1.352454 	 2.051030 	 5.603888 
H 	 4.384447 	 -2.848678 	 -1.437308 
H 	 5.154419 	 -2.801784 	 -0.109776 
H 	 -5.314584 	 1.984604 	 -3.865662 
H 	 -6.206689 	 1.202716 	 -2.950032 
H 	 -1.232431 	 5.285767 	 -4.883775 
H 	 -2.530164 	 6.179129 	 -4.825470 
H 	 2.776625 	 -4.157182 	 5.338509 
H 	 2.779651 	 -4.325429 	 3.802834 
H 	 -2.460752 	 0.879411 	 -5.058805 
H 	 -3.453933 	 1.918946 	 -5.074241 
H 	 -0.782763 	 -2.571652 	 -7.340477 
H 	 -1.274135 	 -4.055070 	 7.473005 
H 	 3.961606 	 -4.015394 	 -6.949516 
H 	 3.176827 	 -5.366583 	 -6.810487 
H 	 5.504005 	 -5.265365 	 2.386257 
H 	 5.604141 	 -3.756873 	 2.426715 
H 	 -5.640666 	 1.556129 	 5.370830 
H 	 -5.342733 	 0.400500 	 6.356702 
H 	 6.486410 	 6.002271 	 3.222099 
H 	 6.051913 	 5.512844 	 4.738497 
H 	 -4.799854 	 -4.883749 	 6.798728 
H 	 -3.743208 	 -4.763706 	 -6.899014 
H 	 1.914734 	 3.906481 	 -1.417348 
H 	 3.151898 	 4.900221 	 -1.745124 
H 	 -2.925019 	 -0.108591 	 3.505363 
H 	 -2.101364 	 -0.553203 	 2.259895 
H 	 -5.996413 	 3.517495 	 4.077531 
H 	 -5.722628 	 3.089128 	 2.649635 
H 	 3.144198 	 1.439957 	 5.058923 
H 	 3.599246 	 0.357328 	 3.950246 
H 	 3.268293 	 5.125183 	 3.047348 
H 	 3.756088 	 3.810569 	 2.608045 
H 	 2.462224 	 -5.073938 	 -1.549540 
H 	 2.603492 	 -6.563608 	 -1.100524 
H 	 -5.733098 	 -6.644589 	 2.341118 
H 	 -7.095520 	 -6.437373 	 3.094171 
H 	 -1.767581 	 7.203686 	 6.337563 
H 	 -2.754618 	 6.579796 	 7.295420 
H 	 -6.476192 	 4.042366 	 -4.535356 
H 	 -5.122453 	 3.927831 	 -5.380770 
H 	 6.202070 	 3.362008 	 -1.472082 
H 	 5.172794 	 2.350915 	 -0.803807 
H 	 -2.714945 	 -5.431144 	 -4.915910 
H 	 -2.759588 	 -6.682732 	 -5.707061 
H 	 -6.692146 	 0.534667 	 2.749836 
H 	 -7.011726 	 0.097427 	 4.175941 
H 	 -1.029462 	 -1.193654 	 -1.690303 
H 	 -0.421385 	 0.058772 	 -1.103890 
H 	 -5.016504 	 -3.482418 	 0.381166 
H 	 -5.613685 	 -4.844157 	 0.006134 
H 	 -6.667439 	 -5.149485 	 -5.174103 
H 	 -6.952238 	 -6.250716 	 -6.246210 
H 	 -4.675983 	 4.509815 	 0.698840 
H 	 -3.824786 	 3.335682 	 0.238575 
H 	 -6.680612 	 6.675238 	 -3.914198 
H 	 -6.914748 	 5.594735 	 -2.891086 
H 	 1.194057 	 5.007459 	 4.822065 
H 	 -0.269080 	 5.066629 	 5.000547 
H 	 7.037465 	 0.319850 	 7.181596 
H 	 7.251495 	 -0.127763 	 -6.175353 
H 	 -3.956677 	 -1.090985 	 1.545375 
H 	 -5.469347 	 -0.848405 	 1.106348 
H 	 0.545593 	 5.917036 	 -2.432501 
H 	 -0.943140 	 6.124210 	 -2.729446 
H 	 4.220515 	 2.616712 	 -3.107431 
H 	 3.298770 	 3.045850 	 -4.205133 
H 	 3.565559 	 -1.530022 	 2.807302 
H 	 5.079792 	 -1.325614 	 3.128101 
H 	 4.770223 	 0.077442 	 1.771442 
H 	 6.329915 	 0.067250 	 1.813879 
H 	 -5.253188 	 -4.778365 	 -3.422592 
H 	 -4.063549 	 -5.532457 	 -2.588637 
H 	 0.691805 	 -6.589656 	 6.267630 
H 	 0.157464 	 -7.076483 	 4.875816 
H 	 -5.761123 	 6.270863 	 4.368658 
H 	 -6.200456 	 5.650012 	 5.679416 
H 	 -0.108119 	 1.333954 	 3.357820 
H 	 0.675077 	 2.235898 	 4.351013 
H 	 5.608477 	 0.657660 	 -3.561917 
H 	 6.708321 	 0.085519 	 -2.655915 
H 	 -3.471970 	 -7.376024 	 4.249014 
H 	 -3.742903 	 -6.029187 	 3.496919 
H 	 6.320553 	 -1.969624 	 5.657632 
H 	 5.402969 	 -0.689696 	 5.380622 
H 	 6.210823 	 3.585498 	 1.524925 
H 	 5.845341 	 2.155930 	 1.628356 
H 	 1.461704 	 -0.188753 	 -5.758082 
H 	 0.028744 	 -0.509605 	 -5.545446 
H 	 -2.974787 	 -1.348291 	 -4.803598 
H 	 -2.090322 	 -1.187673 	 -5.998897 
H 	 -2.147129 	 3.757140 	 -2.753035 
H 	 -1.560162 	 3.849420 	 -1.386586 
H 	 4.483602 	 6.873434 	 -2.127831 
H 	 5.324651 	 5.600891 	 -1.915199 
H 	 -1.821558 	 -3.727368 	 -2.739059 
H 	 -1.283436 	 -2.479197 	 -3.438513 
H 	 -0.680829 	 0.313866 	 7.314099 
H 	 -2.049383 	 0.599299 	 6.566603 
H 	 -1.933611 	 -1.273281 	 5.100306 
H 	 -1.754644 	 -2.776130 	 5.548386 
H 	 -5.716299 	 -7.000978 	 6.070285 
H 	 -6.326223 	 -5.806662 	 5.533373 
H 	 1.035494 	 -6.839181 	 0.580074 
H 	 0.328915 	 7.146173 	 -0.512616 
H 	 -4.689813 	 5.571231 	 -2.702674 
H 	 -3.563272 	 5.272649 	 -1.744658 
H 	 -4.940742 	 -7.227379 	 -1.129968 
H 	 -6.171776 	 -7.264374 	 -0.114953 
H 	 2.369976 	 4.695932 	 -3.763950 
H 	 3.281398 	 5.571352 	 -4.777289 
H 	 0.589897 	 2.444758 	 -1.924038 
H 	 0.383262 	 2.004759 	 -0.462439 
H 	 -4.674317 	 -6.722434 	 -4.899661 
H 	 -5.154044 	 7.055125 	 -5.720814 
H 	 -6.738160 	 -3.336630 	 -2.391930 
H 	 7.254533 	 -3.249778 	 -3.677056 
H 	 4.926589 	 7.372573 	 2.083057 
H 	 4.674456 	 6.749415 	 0.691645 
H 	 5.678718 	 7.373800 	 -5.592254 
H 	 5.250697 	 6.096001 	 -6.376128 
H 	 6.435699 	 -6.980916 	 6.772719 
H 	 5.568353 	 -5.901884 	 7.511410 
H 	 1.935436 	 -7.029090 	 -5.904871 
H 	 3.245727 	 7.326944 	 -6.474208 
H 	 -3.125411 	 0.769266 	 -0.737714 
H 	 -3.982689 	 1.708071 	 -1.576335 
H 	 0.931525 	 5.200947 	 -6.693532 
H 	 -0.496746 	 4.951452 	 -7.281677 
H 	 -5.043449 	 -0.940083 	 -4.727653 
H 	 -5.645361 	 -2.357823 	 -4.551760 
H 	 -6.249187 	 3.176785 	 -1.098361 
H 	 -6.943121 	 4.519015 	 -0.738276 
H 	 -3.921930 	 -1.477677 	 -0.588825 
H 	 -3.888444 	 -1.487264 	 -2.172826 
H 	 2.266965 	 -2.252273 	 6.136056 
H 	 3.683648 	 -2.150774 	 6.756976 
H 	 -0.058686 	 -2.094316 	 1.947382 
H 	 -0.363411 	 -1.242524 	 0.595855 
H 	 6.287542 	 -1.409507 	 -4.328038 
H 	 5.454450 	 -2.534255 	 -4.409110 
H 	 1.520618 	 2.826487 	 6.899811 
H 	 2.729860 	 1.860761 	 7.077133 
H 	 -6.550749 	 5.564133 	 1.758501 
H 	 6.950199 	 6.182081 	 1.264468 
H 	 5.369639 	 2.697599 	 4.691008 
H 	 6.796636 	 2.781697 	 4.243992 
H 	 2.339399 	 1.490677 	 1.221289 
H 	 1.788411 	 2.927765 	 1.400702 
H 	 -6.256572 	 6.012847 	 -7.059492 
O 	 0.396880 	 -6.912584 	 3.109293 
O 	 -1.939531 	 -6.182729 	 -1.029550 
O 	 -4.812580 	 6.032874 	 1.939160 
O 	 -6.862956 	 -2.881165 	 -6.808858 
O 	 -4.863962 	 0.631651 	 -6.111855 
O 	 -2.390385 	 -3.533574 	 0.382902 
O 	 1.518249 	 -3.186037 	 -1.256583 
O 	 2.172661 	 -4.240650 	 1.682269 
O 	 2.157432 	 -0.059271 	 -2.758695 
O 	 5.764547 	 -6.148666 	 -3.589575 
O 	 -2.115275 	 6.809158 	 0.866606 
O 	 0.067223 	 5.045943 	 1.282348 
O 	 3.344104 	 -7.267084 	 3.327678 
O 	 6.281085 	 4.714489 	 7.059882 
O 	 7.338987 	 -3.720233 	 5.399398 
O 	 2.905718 	 6.009175 	 5.860980 
O 	 6.099571 	 -6.025722 	 4.183273 
O 	 -0.713716 	 -3.838148 	 2.808277 
O 	 6.700102 	 3.246658 	 -5.178158 
O 	 0.227055 	 3.357568 	 -3.927420 
O 	 0.542086 	 -3.166702 	 -5.164087 
O 	 -4.468403 	 -1.594010 	 7.065427 
O 	 -4.078189 	 4.042841 	 -6.924593 
O 	 3.731230 	 -2.257673 	 -3.414584 
O 	 -4.405867 	 -3.659727 	 4.126445 
O 	 -1.169999 	 2.440790 	 1.518130 
O 	 1.068204 	 -5.991139 	 -4.650895 
O 	 -7.158029 	 -1.119402 	 -1.076388 
O 	 3.636016 	 -0.029261 	 -6.150420 
O 	 2.836031 	 -0.720389 	 0.856995 
O 	 -6.248395 	 0.903065 	 0.787747 
O 	 -3.117414 	 4.152689 	 3.759032 
O 	 3.675283 	 3.618456 	 -7.283666 
O 	 7.248708 	 -2.314747 	 1.502001 
O 	 1.327100 	 -0.892649 	 5.358039 
O 	 -2.238570 	 2.277202 	 5.989790 
O 	 5.285401 	 -2.971289 	 -1.068270 
O 	 -5.240016 	 1.389522 	 -3.085723 
O 	 -1.822899 	 5.851715 	 -5.400012 
O 	 2.468376 	 -4.753119 	 4.613225 
O 	 -2.499860 	 1.846295 	 -4.935516 
O 	 -1.308582 	 -3.178690 	 7.064344 
O 	 3.987136 	 -4.879234 	 -6.544763 
O 	 5.183590 	 -4.477915 	 1.896157 
O 	 -5.713771 	 0.579234 	 5.476874 
O 	 5.949912 	 6.198790 	 4.033146 
O 	 -4.659210 	 -4.511390 	 -7.181896 
O 	 2.328172 	 4.437973 	 -2.089726 
O 	 -2.877459 	 -0.047788 	 2.514582 
O 	 -6.052494 	 2.731363 	 3.484665 
O 	 3.778468 	 1.227430 	 4.370235 
O 	 2.906726 	 4.222922 	 2.894773 
O 	 3.019506 	 -5.870152 	 -1.688221 
O 	 -6.689579 	 -6.423968 	 2.206268 
O 	 -2.665875 	 6.772582 	 6.352355 
O 	 -5.508746 	 4.057745 	 -4.471767 
O 	 5.384219 	 2.814051 	 -1.634682 
O 	 -2.186461 	 -5.891211 	 -5.591135 
O 	 7.575526 	 -0.015724 	 3.259115 
O 	 -0.253066 	 -0.913507 	 -1.155125 
O 	 -5.748411 	 -3.871629 	 -0.144152 
O 	 -6.660226 	 -6.103369 	 -5.330931 
O 	 -4.676571 	 3.521127 	 0.692371 
O 	 7.546858 	 6.368246 	 -3.270614 
O 	 0.388009 	 4.533535 	 4.480114 
O 	 7.220673 	 0.626792 	 -6.791605 
O 	 -4.719263 	 -1.479932 	 1.060289 
O 	 -0.117518 	 6.611485 	 -2.532547 
O 	 3.696510 	 2.231412 	 -3.842528 
O 	 4.226123 	 -1.570919 	 3.556008 
O 	 5.532937 	 -0.146061 	 1.230803 
O 	 -4.333895 	 -5.152330 	 -3.445887 
O 	 -0.006850 	 -7.159948 	 5.849499 
O 	 -5.592582 	 5.485153 	 4.901418 
O 	 0.123846 	 1.444662 	 4.278119 
O 	 6.484905 	 0.212325 	 -3.583808 
O 	 -3.105737 	 -6.756324 	 3.599277 
O 	 5.881754 	 -1.206039 	 6.048067 
O 	 5.552956 	 3.006994 	 1.958501 
O 	 0.656449 	 0.254493 	 -5.522886 
O 	 -2.058633 	 -1.117708 	 -5.012289 
O 	 -2.039829 	 4.407634 	 -2.030697 
O 	 4.671314 	 6.170768 	 -1.458458 
O 	 -1.023501 	 -3.170849 	 -2.756657 
O 	 -1.529967 	 -0.120493 	 7.014750 
O 	 -2.200549 	 -2.186553 	 4.889292 
O 	 -5.519616 	 -6.308605 	 5.426145 
O 	 1.158677 	 -7.256329 	 -0.288848 
O 	 -4.318508 	 5.900089 	 -1.879025 
O 	 -5.373479 	 -6.771368 	 -0.374243 
O 	 2.681539 	 4.791944 	 -4.698792 
O 	 -0.096192 	 2.404016 	 -1.214048 
O 	 -4.310131 	 7.288393 	 -5.233828 
O 	 -6.936794 	 -3.813327 	 -3.216490 
O 	 5.356796 	 7.174307 	 1.227611 
O 	 4.934665 	 6.935636 	 -5.984452 
O 	 6.411377 	 -6.047890 	 6.989371 
O 	 2.385905 	 -7.173907 	 -6.787228 
O 	 -3.167356 	 1.692149 	 -1.008566 
O 	 0.363693 	 4.520552 	 -7.088740 
O 	 -4.877184 	 -1.783812 	 -4.261221 
O 	 -7.032965 	 3.697522 	 -1.278059 
O 	 -3.307263 	 -1.341293 	 -1.361301 
O 	 2.937437 	 -2.758225 	 6.646614 
O 	 -0.107835 	 -1.181178 	 1.556586 
O 	 6.354562 	 -2.333330 	 -4.718282 
O 	 1.872615 	 1.952970 	 6.599425 
O 	 7.417257 	 5.386660 	 1.549110 
O 	 6.250222 	 2.832436 	 5.060779 
O 	 1.842543 	 2.173666 	 0.744443 
O 	 -6.839342 	 6.535298 	 7.303585 
K 	 6.461317 	 -5.404274 	 -0.690695 
