333
conformation = 27
H 	 1.404791 	 -6.641098 	 2.400565 
H 	 0.206303 	 -5.644561 	 2.369613 
H 	 -2.794166 	 -6.443929 	 -1.063429 
H 	 -1.816319 	 -7.017646 	 -2.190932 
H 	 -3.772659 	 5.334803 	 2.047195 
H 	 -3.403227 	 6.315257 	 1.036117 
H 	 -6.293785 	 -3.054646 	 -6.994174 
H 	 7.461975 	 -2.302172 	 -6.306839 
H 	 -6.355329 	 0.752698 	 -6.780359 
H 	 -5.055150 	 -0.086935 	 -6.687158 
H 	 -1.872725 	 -4.491618 	 -0.806076 
H 	 -2.157992 	 -3.072652 	 -0.369226 
H 	 1.108798 	 -3.219820 	 -1.738596 
H 	 1.665124 	 -4.401797 	 -1.014439 
H 	 3.081146 	 -4.381744 	 1.390024 
H 	 2.035288 	 -3.335057 	 1.070108 
H 	 3.099800 	 0.706971 	 -3.540936 
H 	 1.642496 	 0.419105 	 -3.280403 
H 	 5.084641 	 -5.579678 	 -4.450658 
H 	 6.597696 	 -5.818210 	 -4.424551 
H 	 -0.863353 	 6.556850 	 0.717197 
H 	 -1.640684 	 -7.298136 	 1.623597 
H 	 1.251640 	 5.063842 	 0.867833 
H 	 0.062559 	 4.218110 	 0.602175 
H 	 3.259629 	 -6.630020 	 3.466994 
H 	 3.277092 	 6.719225 	 3.310388 
H 	 7.181476 	 5.551174 	 6.538075 
H 	 6.252004 	 4.250212 	 6.069451 
H 	 -6.409931 	 -3.112402 	 5.648439 
H 	 -5.969130 	 -3.747562 	 4.290409 
H 	 3.552538 	 6.659676 	 5.931409 
H 	 3.133649 	 5.159702 	 5.828890 
H 	 5.768945 	 -6.017938 	 4.147912 
H 	 6.566121 	 -4.834860 	 4.506073 
H 	 -1.265101 	 -3.608606 	 2.971834 
H 	 -1.180881 	 -3.996088 	 1.430879 
H 	 6.841187 	 4.056914 	 -6.760646 
H 	 6.618484 	 2.618208 	 -6.523375 
H 	 -0.266269 	 3.758601 	 -5.445043 
H 	 -0.486159 	 2.238319 	 -4.998836 
H 	 1.889448 	 -3.153290 	 -6.759637 
H 	 1.260876 	 -3.424525 	 -5.403363 
H 	 -3.340972 	 -1.308883 	 6.809390 
H 	 -4.205018 	 -2.606302 	 6.916387 
H 	 -3.052678 	 3.387493 	 7.122671 
H 	 -2.681400 	 4.456585 	 -6.657615 
H 	 3.146131 	 -3.028871 	 -2.818013 
H 	 3.175446 	 -1.549349 	 -3.293186 
H 	 -4.010235 	 -3.753711 	 3.848970 
H 	 -4.581856 	 -3.004543 	 2.639217 
H 	 -2.290725 	 3.272707 	 1.359933 
H 	 -1.823520 	 2.235677 	 0.363373 
H 	 0.528936 	 -4.661432 	 -4.049415 
H 	 1.555225 	 -5.574905 	 -3.367515 
H 	 7.244762 	 -1.649331 	 -1.141605 
H 	 -6.274997 	 -1.440822 	 -0.379379 
H 	 3.663863 	 -0.802540 	 -6.646914 
H 	 4.428202 	 0.471232 	 -6.439434 
H 	 2.216187 	 -1.024695 	 -0.599074 
H 	 1.373905 	 -1.067514 	 0.774416 
H 	 -6.303185 	 2.172705 	 0.409602 
H 	 -7.086299 	 0.904806 	 -0.099128 
H 	 -2.771482 	 5.474912 	 4.368155 
H 	 -1.619812 	 4.846108 	 3.658689 
H 	 3.455017 	 3.952838 	 -6.791789 
H 	 4.689439 	 4.082755 	 -7.583939 
H 	 7.599974 	 -1.793638 	 2.876998 
H 	 -7.012674 	 -3.180051 	 2.343776 
H 	 0.635114 	 -1.164600 	 4.687702 
H 	 1.002492 	 -0.135776 	 5.854414 
H 	 -2.224856 	 3.235666 	 4.932575 
H 	 -1.099709 	 2.251017 	 5.200487 
H 	 4.783749 	 -1.962740 	 -1.568195 
H 	 5.420328 	 -1.754259 	 -0.148338 
H 	 -5.245461 	 1.980788 	 -3.277679 
H 	 -6.567081 	 1.157107 	 -3.463853 
H 	 -2.011378 	 6.181102 	 -4.769594 
H 	 -3.028132 	 6.447060 	 -5.834956 
H 	 3.082593 	 -4.064121 	 5.223434 
H 	 2.461940 	 -4.523999 	 3.879775 
H 	 -2.514155 	 0.960793 	 -5.339729 
H 	 -3.317666 	 2.300109 	 -5.690188 
H 	 -0.423116 	 -2.992674 	 6.995936 
H 	 -1.026369 	 -4.265363 	 -7.441845 
H 	 4.058102 	 -3.956192 	 -6.970063 
H 	 3.450216 	 -5.120215 	 -6.187870 
H 	 5.281941 	 -4.665197 	 1.968497 
H 	 6.008954 	 -3.437140 	 1.432064 
H 	 -6.135522 	 0.595156 	 6.031411 
H 	 -5.133572 	 -0.528376 	 5.727922 
H 	 7.476513 	 6.206806 	 4.081316 
H 	 6.297171 	 6.012680 	 4.986339 
H 	 -4.830235 	 -5.207461 	 6.764076 
H 	 -3.400408 	 -4.616265 	 6.839435 
H 	 2.657050 	 5.212038 	 -1.333970 
H 	 3.438717 	 4.212476 	 -2.053899 
H 	 -2.736281 	 1.269293 	 1.858026 
H 	 -1.681204 	 0.076423 	 1.807135 
H 	 -5.782972 	 4.176635 	 3.729762 
H 	 -5.395812 	 2.995623 	 2.868990 
H 	 3.092309 	 1.764199 	 5.056796 
H 	 3.663555 	 0.821153 	 4.022549 
H 	 3.805344 	 3.928234 	 2.068051 
H 	 3.060217 	 3.274974 	 3.256725 
H 	 3.695727 	 -5.078361 	 -1.971552 
H 	 3.288578 	 -6.325544 	 -1.318043 
H 	 -5.937057 	 -7.253026 	 2.232931 
H 	 -6.936447 	 -6.097927 	 2.589603 
H 	 -2.108485 	 6.968077 	 6.009221 
H 	 -3.363540 	 6.151326 	 6.523145 
H 	 -6.155949 	 3.481332 	 -5.222067 
H 	 -4.790468 	 3.976738 	 -5.164747 
H 	 6.354407 	 3.093421 	 -1.632667 
H 	 5.196628 	 2.820678 	 -0.692966 
H 	 -2.476888 	 -5.517369 	 -5.137278 
H 	 -1.451122 	 -6.162549 	 -6.153147 
H 	 -7.147061 	 0.789076 	 2.410619 
H 	 -6.579950 	 0.490636 	 3.870022 
H 	 -1.732594 	 -0.601793 	 -1.191814 
H 	 -0.351807 	 0.035541 	 -1.430495 
H 	 -4.934959 	 -3.379085 	 0.324554 
H 	 -5.347225 	 -4.722866 	 -0.320811 
H 	 -6.357971 	 -5.324755 	 -5.412274 
H 	 7.464756 	 -6.038952 	 -6.270596 
H 	 -4.228755 	 4.152362 	 0.509183 
H 	 -4.022053 	 2.699506 	 -0.063095 
H 	 -7.076651 	 6.598354 	 -3.943091 
H 	 -6.967512 	 5.195731 	 -3.244439 
H 	 0.880032 	 5.276123 	 3.323207 
H 	 0.823839 	 5.714262 	 4.881906 
H 	 5.878623 	 0.195481 	 6.953236 
H 	 6.183999 	 -0.405322 	 -6.649400 
H 	 -4.124143 	 -0.776835 	 1.632521 
H 	 -5.562980 	 -1.152022 	 1.584614 
H 	 0.234981 	 6.764167 	 -3.815530 
H 	 -0.565066 	 5.809199 	 -2.880686 
H 	 4.641860 	 2.527017 	 -3.513489 
H 	 3.489057 	 2.559227 	 -4.618829 
H 	 3.330311 	 -1.888713 	 2.248095 
H 	 4.042578 	 -2.473897 	 3.471986 
H 	 4.628035 	 0.767207 	 0.318394 
H 	 5.161465 	 -0.084511 	 1.516091 
H 	 -4.582541 	 -4.971650 	 -3.162987 
H 	 -3.232160 	 -5.663536 	 -2.985444 
H 	 0.763667 	 -6.636113 	 6.308807 
H 	 0.273534 	 -7.016719 	 4.817802 
H 	 -5.122400 	 6.875674 	 4.437046 
H 	 -5.692984 	 5.973505 	 5.370999 
H 	 -0.511090 	 2.165555 	 2.748845 
H 	 0.682839 	 2.591431 	 3.554504 
H 	 5.758108 	 0.728267 	 -3.435357 
H 	 6.487018 	 0.045723 	 -2.282641 
H 	 -3.188029 	 -6.589798 	 4.034914 
H 	 -3.735687 	 -5.572013 	 2.985596 
H 	 6.397894 	 -2.099858 	 6.013655 
H 	 5.988471 	 -1.320602 	 4.817439 
H 	 6.502856 	 3.573899 	 1.463882 
H 	 5.879006 	 2.112578 	 1.423515 
H 	 1.650260 	 0.001475 	 -5.583542 
H 	 0.669471 	 -1.215896 	 -5.818720 
H 	 -3.112282 	 -1.910347 	 -5.008173 
H 	 -1.864877 	 -1.327746 	 -5.801248 
H 	 -1.177536 	 3.677298 	 -3.435906 
H 	 -0.893045 	 3.591522 	 -1.940895 
H 	 4.781419 	 6.846519 	 -2.172810 
H 	 6.102248 	 6.047363 	 -2.425597 
H 	 -1.753522 	 -3.972403 	 -3.311419 
H 	 -1.054743 	 -2.767611 	 -3.841217 
H 	 -0.897914 	 -0.501362 	 6.081192 
H 	 -2.027849 	 0.610766 	 6.160777 
H 	 -2.446319 	 -1.234461 	 3.807766 
H 	 -2.555154 	 -2.168018 	 4.945510 
H 	 -5.492790 	 -7.219556 	 6.313970 
H 	 -6.272933 	 -6.104194 	 5.624550 
H 	 0.787554 	 -6.529454 	 0.213873 
H 	 0.640676 	 -6.912213 	 -1.334454 
H 	 -4.707561 	 5.152171 	 -2.825309 
H 	 -3.384328 	 5.600309 	 -2.268272 
H 	 -4.872248 	 -7.254103 	 -1.555455 
H 	 -5.461042 	 -7.306254 	 -0.175396 
H 	 2.558213 	 5.204201 	 -4.051978 
H 	 3.785732 	 5.698741 	 -4.951449 
H 	 0.905114 	 2.788503 	 -2.419944 
H 	 1.066856 	 2.100463 	 -1.069080 
H 	 -4.382946 	 -7.094069 	 -4.963513 
H 	 -5.400715 	 7.345676 	 -6.142895 
H 	 -6.677461 	 -3.086429 	 -2.358325 
H 	 7.292075 	 -3.233748 	 -3.547993 
H 	 4.810327 	 -7.452511 	 1.491765 
H 	 4.913744 	 6.755454 	 0.067021 
H 	 5.567296 	 7.260764 	 -4.980184 
H 	 5.842801 	 6.131502 	 -6.122458 
H 	 6.655833 	 -6.899585 	 6.878527 
H 	 5.739394 	 -5.710799 	 7.252970 
H 	 1.270950 	 -6.578277 	 -5.966962 
H 	 2.101566 	 7.016341 	 -6.224740 
H 	 -3.276755 	 0.751469 	 -1.586137 
H 	 -2.317602 	 1.898715 	 -2.155303 
H 	 0.377070 	 5.641824 	 -7.365316 
H 	 -0.604973 	 4.505779 	 7.273594 
H 	 -5.266392 	 -0.953020 	 -4.509999 
H 	 -5.641219 	 -2.392373 	 -4.061033 
H 	 -5.969071 	 3.732315 	 -1.294957 
H 	 -6.821619 	 4.631400 	 -0.387598 
H 	 -4.208820 	 -1.818761 	 -1.183263 
H 	 -4.148852 	 -1.222427 	 -2.598738 
H 	 2.630988 	 -1.817414 	 6.180400 
H 	 4.165301 	 -1.841969 	 6.188739 
H 	 -0.403974 	 -1.844928 	 1.827002 
H 	 -0.467492 	 -0.870857 	 0.740820 
H 	 6.241238 	 -1.462588 	 -4.542042 
H 	 5.222008 	 -2.659474 	 -4.883730 
H 	 0.908868 	 1.848336 	 6.640411 
H 	 2.058279 	 1.256353 	 -7.401951 
H 	 -7.058896 	 5.169814 	 1.968553 
H 	 7.029077 	 6.153697 	 1.070622 
H 	 5.780399 	 2.511610 	 4.469449 
H 	 7.332626 	 2.641454 	 4.608913 
H 	 2.408736 	 1.191966 	 0.522005 
H 	 2.515689 	 2.694279 	 0.958614 
H 	 -5.838836 	 5.562100 	 7.241510 
O 	 0.457348 	 -6.583925 	 2.092680 
O 	 -2.180464 	 -6.191339 	 -1.803898 
O 	 -4.194335 	 5.760411 	 1.286449 
O 	 -7.145241 	 -2.592809 	 -7.192767 
O 	 -5.591213 	 0.561596 	 -6.210509 
O 	 -2.180250 	 -3.968648 	 -0.029562 
O 	 1.958129 	 -3.542732 	 -1.376578 
O 	 2.235690 	 -4.045002 	 1.716595 
O 	 2.530436 	 0.246449 	 -2.889311 
O 	 5.771937 	 -6.055235 	 -3.923122 
O 	 -1.771774 	 6.884281 	 0.962740 
O 	 0.524751 	 5.020260 	 0.234085 
O 	 3.360342 	 -7.345165 	 2.837012 
O 	 6.204927 	 5.114372 	 6.567990 
O 	 -6.779731 	 -3.488486 	 4.841984 
O 	 2.948037 	 6.036854 	 5.466838 
O 	 6.373931 	 -5.375440 	 3.739629 
O 	 -0.631337 	 -3.749097 	 2.244459 
O 	 7.210725 	 3.313574 	 -6.257573 
O 	 0.058236 	 3.037191 	 -4.846322 
O 	 1.071614 	 -2.982340 	 -6.246587 
O 	 -4.259098 	 -1.610834 	 6.891420 
O 	 -3.422582 	 4.074595 	 -7.204305 
O 	 3.646364 	 -2.410913 	 -3.389911 
O 	 -4.724134 	 -3.860995 	 3.165248 
O 	 -1.542771 	 2.675910 	 1.201590 
O 	 1.048430 	 -5.467437 	 -4.172711 
O 	 -6.824344 	 -1.159268 	 -1.136306 
O 	 3.549363 	 0.077219 	 -6.312264 
O 	 2.235310 	 -0.843855 	 0.373622 
O 	 -6.580141 	 1.238976 	 0.649919 
O 	 -2.544286 	 4.676192 	 3.870983 
O 	 3.965959 	 3.441969 	 -7.429903 
O 	 7.221310 	 -2.480930 	 2.308756 
O 	 0.617503 	 -1.040725 	 5.654550 
O 	 -1.989068 	 2.482742 	 5.538536 
O 	 5.556379 	 -2.214598 	 -1.004697 
O 	 -5.760150 	 1.245580 	 -2.900286 
O 	 -2.138588 	 6.042106 	 -5.725464 
O 	 3.038445 	 -4.840598 	 4.615573 
O 	 -2.605687 	 1.909780 	 -5.147414 
O 	 -1.198549 	 -3.562630 	 6.790657 
O 	 4.315651 	 -4.750384 	 -6.431666 
O 	 5.448719 	 -4.188917 	 1.135178 
O 	 -5.396610 	 0.360387 	 5.460529 
O 	 6.516810 	 6.276876 	 4.076880 
O 	 -4.313234 	 -4.451440 	 7.187711 
O 	 2.480352 	 4.441219 	 -1.902228 
O 	 -2.629089 	 0.275636 	 1.942502 
O 	 -6.168869 	 3.458034 	 3.183682 
O 	 3.592920 	 1.802847 	 4.219281 
O 	 2.896429 	 3.771622 	 2.411271 
O 	 3.823581 	 -6.026729 	 -2.080280 
O 	 -6.393080 	 -6.455863 	 1.859722 
O 	 -2.876934 	 6.458261 	 5.741384 
O 	 -5.508310 	 3.797255 	 -4.544281 
O 	 5.539894 	 2.569181 	 -1.576552 
O 	 -1.613366 	 -5.374496 	 -5.585931 
O 	 -7.185113 	 0.172493 	 3.168732 
O 	 -0.788114 	 -0.786867 	 -1.129246 
O 	 -5.710468 	 -3.871473 	 0.011226 
O 	 -7.004788 	 -6.046837 	 -5.371175 
O 	 -4.260945 	 3.188593 	 0.751298 
O 	 7.629075 	 6.111118 	 -3.134224 
O 	 0.312888 	 5.362349 	 4.118741 
O 	 6.160956 	 0.470344 	 -7.058559 
O 	 -4.683400 	 -1.546395 	 1.366493 
O 	 -0.405069 	 6.768221 	 -3.108717 
O 	 4.280398 	 2.059313 	 -4.318340 
O 	 3.925678 	 -1.642704 	 2.986118 
O 	 5.394954 	 0.289971 	 0.626820 
O 	 -4.027231 	 -5.655685 	 -3.588431 
O 	 0.100167 	 -7.130801 	 5.798143 
O 	 -5.505083 	 5.985156 	 4.415897 
O 	 0.067998 	 1.846683 	 3.487738 
O 	 6.535698 	 0.167946 	 -3.233039 
O 	 -3.020177 	 -6.251279 	 3.131989 
O 	 5.791052 	 -1.336198 	 5.778539 
O 	 5.667577 	 3.054445 	 1.547732 
O 	 0.723733 	 -0.262140 	 -5.474718 
O 	 -2.185299 	 -1.599031 	 -4.893290 
O 	 -1.425954 	 4.126990 	 -2.581748 
O 	 5.237343 	 6.009200 	 -1.911972 
O 	 -0.888421 	 -3.539405 	 -3.275319 
O 	 -1.689189 	 -0.197455 	 6.602853 
O 	 -2.291197 	 -2.192252 	 3.999179 
O 	 -5.369213 	 -6.436580 	 5.674352 
O 	 1.207952 	 -6.436221 	 -0.666798 
O 	 -4.336502 	 5.728892 	 -2.153474 
O 	 -5.122915 	 -6.655511 	 -0.825442 
O 	 2.816966 	 5.533506 	 -4.939939 
O 	 0.365957 	 2.285757 	 -1.764288 
O 	 -4.628371 	 7.128025 	 -5.623595 
O 	 -6.785978 	 -3.630908 	 -3.153734 
O 	 5.378282 	 7.351216 	 0.684524 
O 	 5.156147 	 6.542263 	 -5.539637 
O 	 6.660785 	 -5.933455 	 6.908868 
O 	 1.824405 	 -7.008120 	 -6.607567 
O 	 -2.685994 	 1.488268 	 -1.342852 
O 	 0.183056 	 4.737287 	 -7.086677 
O 	 -4.936886 	 -1.733591 	 -4.051351 
O 	 -6.866119 	 4.005483 	 -1.141598 
O 	 -3.638682 	 -1.267461 	 -1.764222 
O 	 3.361535 	 -2.199596 	 6.692994 
O 	 -0.145544 	 -0.912838 	 1.675869 
O 	 6.072624 	 -2.268470 	 -5.106235 
O 	 1.719486 	 1.279333 	 6.579087 
O 	 -7.177703 	 5.429744 	 1.033740 
O 	 6.496572 	 2.520195 	 5.115060 
O 	 2.539430 	 2.089674 	 0.189073 
O 	 -6.365752 	 6.315898 	 6.983780 
K 	 6.747746 	 -5.689653 	 -0.976687 
