333
conformation = 21
H 	 -7.464152 	 -7.461457 	 -7.708924 
H 	 6.706404 	 -6.174403 	 6.675062 
H 	 3.598778 	 7.295855 	 3.529530 
H 	 4.697412 	 7.268414 	 2.493922 
H 	 1.779931 	 5.549407 	 6.643975 
H 	 2.893860 	 5.322223 	 5.581263 
H 	 -0.417379 	 -3.707305 	 -2.389048 
H 	 -1.959837 	 -3.583424 	 -2.185361 
H 	 -0.623239 	 -0.029940 	 -1.486246 
H 	 0.526929 	 -0.884675 	 -1.965343 
H 	 4.083428 	 -5.410603 	 4.044826 
H 	 3.899724 	 -3.868464 	 3.885119 
H 	 7.048548 	 -3.864719 	 3.346578 
H 	 -7.406638 	 -5.312667 	 3.144373 
H 	 -5.363280 	 -4.510249 	 6.118603 
H 	 -6.707858 	 -4.341629 	 5.459606 
H 	 -5.779803 	 0.176950 	 1.116494 
H 	 -7.059661 	 -0.661917 	 1.397689 
H 	 -3.740152 	 -6.262560 	 0.187438 
H 	 -2.224971 	 -6.629049 	 0.103688 
H 	 5.068698 	 5.651202 	 5.506384 
H 	 4.483336 	 6.819498 	 6.382110 
H 	 -7.319460 	 4.728945 	 4.582713 
H 	 6.544621 	 3.715502 	 5.228378 
H 	 -5.018298 	 7.385782 	 -7.074683 
H 	 -5.426038 	 5.948731 	 -6.974988 
H 	 -1.709140 	 4.856674 	 -3.612742 
H 	 -2.459805 	 3.810920 	 -4.507081 
H 	 -0.461181 	 -3.622807 	 -4.613378 
H 	 0.317857 	 -4.026613 	 -6.016000 
H 	 -5.311486 	 5.712933 	 -4.134615 
H 	 -5.586808 	 4.305966 	 -4.497889 
H 	 -2.235138 	 -6.870180 	 -6.315198 
H 	 -1.798149 	 -5.338966 	 -6.123137 
H 	 4.855375 	 -4.202952 	 -7.367513 
H 	 4.778025 	 -4.387652 	 6.003845 
H 	 -1.803196 	 3.350094 	 -2.312451 
H 	 -2.088510 	 1.795309 	 -1.951109 
H 	 6.444253 	 2.726726 	 -1.111266 
H 	 5.622598 	 1.505919 	 -0.686168 
H 	 -6.949752 	 -3.584755 	 -2.558218 
H 	 7.280112 	 -4.702072 	 -1.696692 
H 	 2.625886 	 -2.222296 	 -3.286941 
H 	 1.605229 	 -3.466304 	 -3.163064 
H 	 2.876536 	 2.647223 	 -3.167171 
H 	 3.542818 	 3.644856 	 -2.209134 
H 	 -6.135748 	 -3.677296 	 1.239592 
H 	 -5.673075 	 -2.198944 	 1.324250 
H 	 2.306363 	 -4.519890 	 -7.155558 
H 	 1.167467 	 -3.714768 	 7.099023 
H 	 3.634817 	 2.556233 	 5.939025 
H 	 4.557843 	 2.075955 	 4.813812 
H 	 6.331181 	 -5.890850 	 0.962896 
H 	 -7.113848 	 -6.372610 	 1.395635 
H 	 -1.591440 	 -2.261890 	 3.731039 
H 	 -0.215457 	 -2.347903 	 4.355010 
H 	 -5.222663 	 -1.276474 	 -2.287462 
H 	 -4.713209 	 -0.072897 	 -1.462803 
H 	 -7.230006 	 -1.725408 	 4.319164 
H 	 -7.336451 	 -1.442758 	 5.752082 
H 	 0.194274 	 0.916082 	 5.541363 
H 	 -0.685938 	 -0.196905 	 4.877926 
H 	 3.387165 	 4.737260 	 -6.078123 
H 	 4.679060 	 4.227940 	 -6.662945 
H 	 -5.801152 	 3.383948 	 -2.376211 
H 	 -4.270215 	 3.470997 	 -2.715587 
H 	 -1.807670 	 -2.287721 	 7.185619 
H 	 -1.467032 	 -3.670466 	 -7.088439 
H 	 6.708189 	 -1.574480 	 -5.549912 
H 	 6.855599 	 -1.067086 	 -4.118889 
H 	 3.542498 	 2.515027 	 -5.228518 
H 	 4.749112 	 1.463218 	 -5.336187 
H 	 -3.818594 	 -3.140328 	 2.970564 
H 	 -3.880318 	 -1.975547 	 3.911538 
H 	 0.185358 	 1.185007 	 1.012168 
H 	 -0.641653 	 0.144606 	 1.797719 
H 	 4.378201 	 5.787550 	 -0.162089 
H 	 3.035124 	 5.918745 	 -0.926487 
H 	 -5.508901 	 -4.803393 	 -4.766123 
H 	 -6.443928 	 -4.956944 	 -5.965245 
H 	 3.262272 	 0.182347 	 -0.357468 
H 	 3.023992 	 1.339545 	 -1.209111 
H 	 5.250208 	 -3.776288 	 -3.984174 
H 	 4.871056 	 -4.492720 	 -2.684297 
H 	 -5.032357 	 -4.633638 	 -1.394409 
H 	 -5.281848 	 -6.002225 	 -1.992012 
H 	 -3.067518 	 -5.215171 	 6.289542 
H 	 -3.195453 	 -3.888573 	 5.576726 
H 	 0.494797 	 0.425711 	 -4.312149 
H 	 1.039414 	 -1.006518 	 -4.386044 
H 	 -1.450309 	 5.661533 	 -6.167524 
H 	 -2.868349 	 5.271302 	 -5.625305 
H 	 1.593570 	 -5.926390 	 -3.406491 
H 	 2.929449 	 -5.102882 	 -3.080720 
H 	 -6.437704 	 4.810872 	 2.467298 
H 	 -5.362163 	 3.819958 	 3.014790 
H 	 3.598898 	 0.423248 	 6.249925 
H 	 4.264609 	 -0.779125 	 6.904311 
H 	 0.314773 	 3.578555 	 -6.611597 
H 	 0.668566 	 2.509121 	 -7.679546 
H 	 -5.908229 	 1.292777 	 -5.167085 
H 	 -5.458560 	 0.332614 	 -6.293079 
H 	 -5.029784 	 3.326282 	 6.679157 
H 	 -5.787209 	 2.349008 	 -7.298346 
H 	 -4.893621 	 -5.735331 	 2.688272 
H 	 -5.767979 	 -6.824313 	 3.305397 
H 	 -0.252586 	 6.763400 	 6.329385 
H 	 -0.973213 	 -6.966246 	 7.031375 
H 	 3.845190 	 6.224007 	 -4.219083 
H 	 2.881437 	 5.109075 	 -3.857526 
H 	 -0.171780 	 2.963155 	 -0.319848 
H 	 1.420001 	 3.263194 	 -0.236453 
H 	 -2.377675 	 2.120528 	 3.257284 
H 	 -3.771527 	 2.234797 	 3.885907 
H 	 3.688906 	 -5.588146 	 -1.056013 
H 	 4.292851 	 -6.915370 	 -0.942730 
H 	 -0.894912 	 -0.046048 	 7.003606 
H 	 -0.491160 	 -0.574822 	 -6.416160 
H 	 4.446782 	 -1.686948 	 3.273213 
H 	 5.187948 	 -0.384499 	 3.405916 
H 	 0.662281 	 -4.243525 	 5.315510 
H 	 0.702614 	 -5.568615 	 4.574187 
H 	 -0.461815 	 -5.738629 	 -0.499373 
H 	 -1.074210 	 -6.441541 	 -1.809911 
H 	 1.784430 	 3.294435 	 5.540561 
H 	 2.320407 	 2.014410 	 4.691151 
H 	 -1.124502 	 5.641937 	 0.565194 
H 	 -0.775593 	 4.652657 	 1.642053 
H 	 7.262189 	 4.561029 	 -6.420176 
H 	 6.371972 	 5.467076 	 -5.595568 
H 	 -2.980852 	 -0.468014 	 -3.309849 
H 	 -2.469290 	 -1.023878 	 -1.921478 
H 	 2.237727 	 -1.644643 	 6.129501 
H 	 0.743509 	 -1.530472 	 6.677630 
H 	 6.270249 	 6.437372 	 0.839910 
H 	 5.679310 	 5.117026 	 1.497758 
H 	 -4.243545 	 1.977729 	 1.080556 
H 	 -4.255953 	 1.901758 	 -0.455448 
H 	 -5.750433 	 -2.707585 	 6.990432 
H 	 -4.295176 	 -2.834037 	 -7.397035 
H 	 -3.972992 	 0.246215 	 4.598328 
H 	 -4.330654 	 -0.611395 	 5.804759 
H 	 1.538436 	 -5.543311 	 1.198822 
H 	 2.564579 	 -6.637519 	 1.704476 
H 	 6.915890 	 7.180882 	 -3.785973 
H 	 6.620242 	 -7.152413 	 -5.154608 
H 	 1.144012 	 6.126116 	 -6.085531 
H 	 0.377602 	 5.333949 	 -4.961201 
H 	 5.642052 	 1.057358 	 7.185841 
H 	 6.143451 	 2.252104 	 -6.900897 
H 	 -2.929925 	 0.161156 	 1.148148 
H 	 -2.607815 	 -0.651676 	 2.424037 
H 	 2.958626 	 -6.416380 	 -6.308618 
H 	 2.218960 	 -6.934657 	 -7.570861 
H 	 -2.307259 	 -2.445097 	 -4.246872 
H 	 -2.928991 	 -1.795140 	 -5.583670 
H 	 -2.660288 	 3.303825 	 5.781987 
H 	 -2.659109 	 1.820843 	 5.872756 
H 	 -7.264694 	 -0.796317 	 -0.881050 
H 	 6.584309 	 -1.808198 	 -0.677813 
H 	 2.883625 	 -2.275220 	 -0.285166 
H 	 4.214983 	 -2.291959 	 -1.140900 
H 	 5.079476 	 3.085035 	 1.020888 
H 	 5.429281 	 3.377299 	 2.551682 
H 	 -3.850249 	 6.035042 	 2.017357 
H 	 -2.739201 	 5.055690 	 2.372183 
H 	 4.255509 	 -4.661439 	 1.421406 
H 	 5.021198 	 -3.450936 	 1.023167 
H 	 5.026651 	 -0.943401 	 -4.107212 
H 	 3.892450 	 0.066380 	 -3.842939 
H 	 3.167156 	 -2.193581 	 -6.834627 
H 	 4.046928 	 -2.720640 	 -5.593960 
H 	 0.221089 	 7.283490 	 -3.736556 
H 	 -0.121670 	 -6.388465 	 -4.704577 
H 	 7.232583 	 -6.836687 	 4.883548 
H 	 6.256019 	 -6.966645 	 3.721090 
H 	 1.390781 	 4.563074 	 1.690522 
H 	 2.739888 	 4.670062 	 2.402123 
H 	 0.676318 	 7.110036 	 2.852973 
H 	 1.187649 	 6.664588 	 4.260112 
H 	 -6.592785 	 4.401700 	 0.403762 
H 	 -5.370907 	 5.231467 	 -0.076986 
H 	 6.893373 	 1.527158 	 1.925751 
H 	 7.354749 	 1.687790 	 3.415467 
H 	 0.324875 	 7.129989 	 -0.668189 
H 	 0.753743 	 6.106739 	 -1.670564 
H 	 -0.400960 	 -3.929683 	 2.636564 
H 	 -1.582327 	 -3.838519 	 1.601470 
H 	 -4.272598 	 6.502261 	 5.730449 
H 	 -3.586234 	 6.041256 	 4.410751 
H 	 -3.332101 	 6.666038 	 -0.327491 
H 	 -3.017885 	 5.739981 	 -1.541390 
H 	 -2.277497 	 7.316248 	 -3.485616 
H 	 -2.997639 	 -6.248738 	 -2.935264 
H 	 7.410984 	 -7.017278 	 -1.030764 
H 	 -6.606038 	 6.763011 	 -1.462923 
H 	 2.706909 	 0.295882 	 2.856042 
H 	 3.560443 	 1.435488 	 2.437060 
H 	 6.371997 	 4.838474 	 -2.179397 
H 	 6.062383 	 4.246925 	 -3.561952 
H 	 0.498354 	 -1.472637 	 0.341325 
H 	 0.363479 	 -2.971802 	 0.712580 
H 	 -0.163363 	 2.646939 	 3.387879 
H 	 -0.942333 	 3.809338 	 4.090406 
H 	 1.876586 	 -1.610898 	 3.841395 
H 	 1.645626 	 -2.183038 	 2.499044 
H 	 -5.958145 	 -2.286186 	 -4.130332 
H 	 -4.480573 	 -2.832244 	 -4.158780 
H 	 5.927963 	 -2.498857 	 6.687600 
H 	 5.482126 	 -1.646326 	 5.406386 
H 	 -2.580769 	 -2.042680 	 0.188134 
H 	 -3.790234 	 -2.767207 	 -0.134853 
H 	 7.050491 	 1.102514 	 -3.160777 
H 	 -6.524872 	 0.293576 	 -3.031468 
H 	 -0.711751 	 4.322050 	 6.517539 
H 	 -1.939526 	 5.255413 	 6.156034 
H 	 -3.142589 	 1.424571 	 -4.952576 
H 	 -2.083862 	 1.752640 	 -5.917742 
H 	 -6.312902 	 0.299753 	 4.882114 
H 	 -6.074497 	 1.677627 	 5.476357 
H 	 0.323635 	 4.590363 	 -2.920629 
O 	 6.702837 	 -7.138504 	 6.647238 
O 	 3.918175 	 -7.086928 	 2.787841 
O 	 1.925890 	 5.166041 	 5.740997 
O 	 -1.174421 	 -3.152390 	 -2.584623 
O 	 0.324606 	 -0.191553 	 -1.295254 
O 	 3.814901 	 -4.610958 	 4.526408 
O 	 -7.056594 	 -4.423048 	 3.320190 
O 	 -6.290227 	 -4.643385 	 6.287795 
O 	 -6.192618 	 -0.425523 	 1.759455 
O 	 -3.040677 	 -6.680530 	 0.678670 
O 	 4.394514 	 6.380933 	 5.502006 
O 	 6.619390 	 4.519839 	 4.694403 
O 	 -5.660668 	 6.783440 	 -7.470541 
O 	 -2.635241 	 4.445283 	 -3.769628 
O 	 -0.541742 	 -4.099666 	 -5.467967 
O 	 -5.726859 	 5.217794 	 -4.840914 
O 	 -2.389258 	 -5.973101 	 -6.596660 
O 	 5.425752 	 -4.391894 	 6.783479 
O 	 -1.594056 	 2.602277 	 -1.714040 
O 	 6.133545 	 2.244414 	 -0.311478 
O 	 -7.323906 	 -3.758777 	 -1.682950 
O 	 1.679719 	 -2.474900 	 -3.262773 
O 	 2.670104 	 3.382855 	 -2.558460 
O 	 -5.351915 	 -3.115153 	 1.280534 
O 	 1.346180 	 -4.535186 	 -7.259208 
O 	 4.522802 	 2.220434 	 5.764345 
O 	 7.243901 	 -6.075322 	 0.645494 
O 	 -0.663729 	 -1.985219 	 3.571656 
O 	 -5.525359 	 -0.562792 	 -1.689452 
O 	 -6.648604 	 -1.680114 	 5.091560 
O 	 -0.722013 	 0.690767 	 5.298961 
O 	 3.769719 	 3.969225 	 -6.493177 
O 	 -5.043548 	 2.901870 	 -2.776787 
O 	 -1.792057 	 -3.245208 	 6.988716 
O 	 6.656176 	 -1.898038 	 -4.624817 
O 	 4.127190 	 1.938814 	 -4.729151 
O 	 -3.315361 	 -2.726976 	 3.666408 
O 	 0.223200 	 0.617228 	 1.820238 
O 	 3.949922 	 5.564689 	 -0.998340 
O 	 -5.788684 	 -5.447217 	 -5.448573 
O 	 3.465388 	 1.139596 	 -0.378412 
O 	 4.655514 	 -4.412808 	 -3.618963 
O 	 -4.568655 	 -5.418351 	 -1.690295 
O 	 -3.619961 	 -4.777814 	 5.614108 
O 	 0.703981 	 -0.280057 	 -4.936163 
O 	 -2.398032 	 5.859487 	 -6.245840 
O 	 1.951782 	 -5.109217 	 -2.962598 
O 	 -6.287933 	 3.913622 	 2.822899 
O 	 3.363007 	 -0.396677 	 6.743978 
O 	 -0.073471 	 2.881625 	 -7.168303 
O 	 -5.312615 	 1.208889 	 -5.923821 
O 	 -5.931961 	 3.175311 	 7.040491 
O 	 -5.023287 	 -6.702985 	 2.719702 
O 	 -0.169481 	 -7.182160 	 6.489523 
O 	 2.986878 	 5.857549 	 -4.498392 
O 	 0.611645 	 2.992931 	 0.261664 
O 	 -3.302960 	 1.839426 	 3.134386 
O 	 4.585561 	 -5.975522 	 -0.996452 
O 	 -1.192241 	 -0.549911 	 -7.108556 
O 	 5.258890 	 -1.325400 	 3.680627 
O 	 0.417671 	 -4.634947 	 4.461588 
O 	 -0.837463 	 -6.562113 	 -0.857929 
O 	 1.873558 	 2.319600 	 5.513817 
O 	 -1.196409 	 5.536109 	 1.534817 
O 	 6.310649 	 4.803965 	 -6.345902 
O 	 -3.013698 	 -0.341022 	 -2.343799 
O 	 1.359376 	 -2.083445 	 6.160040 
O 	 5.533925 	 6.084056 	 1.414227 
O 	 -4.429370 	 1.348451 	 0.340963 
O 	 -5.081827 	 -2.216273 	 -7.360463 
O 	 -3.562535 	 -0.408757 	 5.238741 
O 	 1.936312 	 -6.393407 	 0.968026 
O 	 6.207066 	 7.182651 	 -4.443665 
O 	 0.541123 	 5.385152 	 -5.973630 
O 	 6.146771 	 1.276140 	 -6.938172 
O 	 -2.381857 	 -0.575532 	 1.470039 
O 	 3.110158 	 -6.773072 	 -7.207433 
O 	 -3.078251 	 -2.012532 	 -4.640937 
O 	 -3.208900 	 2.588355 	 6.117914 
O 	 6.714691 	 -0.856976 	 -0.594855 
O 	 3.854456 	 -2.314129 	 -0.257341 
O 	 4.710022 	 3.455177 	 1.868905 
O 	 -3.648589 	 5.342980 	 2.668200 
O 	 5.188296 	 -4.356202 	 1.373763 
O 	 4.272263 	 -0.751928 	 -3.501457 
O 	 3.675411 	 -2.945063 	 -6.455593 
O 	 0.586734 	 -7.042062 	 -4.473562 
O 	 7.205074 	 -6.830117 	 3.891980 
O 	 1.834870 	 5.000156 	 2.443670 
O 	 0.920581 	 -7.455321 	 3.733514 
O 	 -6.270425 	 4.931393 	 -0.347571 
O 	 6.588055 	 1.397508 	 2.836542 
O 	 1.125113 	 6.584553 	 -0.889952 
O 	 -0.712670 	 -4.234893 	 1.749698 
O 	 -3.465056 	 6.654658 	 5.181738 
O 	 -3.458012 	 5.741300 	 -0.681890 
O 	 -2.112799 	 -6.653627 	 -3.246477 
O 	 -7.344571 	 7.335896 	 -1.801466 
O 	 3.459272 	 0.816917 	 3.170999 
O 	 6.433487 	 4.000231 	 -2.698267 
O 	 0.979045 	 -2.299764 	 0.392424 
O 	 -0.946278 	 3.248897 	 3.299095 
O 	 2.355984 	 -2.039510 	 3.126361 
O 	 -5.337019 	 -2.830877 	 -3.616174 
O 	 5.815665 	 -1.609808 	 6.322017 
O 	 -2.848352 	 -2.843392 	 -0.348127 
O 	 -7.256449 	 0.491797 	 -3.658377 
O 	 -1.125357 	 4.833759 	 5.778959 
O 	 -2.250683 	 1.777963 	 -4.945727 
O 	 -6.054855 	 1.196984 	 4.649110 
O 	 -0.207472 	 5.397582 	 -3.186307 
K 	 -2.062002 	 -6.486335 	 3.664074 
