333
conformation = 29
H 	 -7.604243 	 -7.320097 	 -7.659689 
H 	 6.162100 	 -6.200088 	 6.938668 
H 	 3.296726 	 -7.023448 	 3.919612 
H 	 4.359242 	 7.436853 	 2.886073 
H 	 2.162648 	 4.929058 	 7.053036 
H 	 2.372483 	 5.651633 	 5.701277 
H 	 -0.244298 	 -3.550211 	 -2.190212 
H 	 -1.599958 	 -3.004885 	 -1.493704 
H 	 -0.510252 	 0.152773 	 -1.749916 
H 	 0.682083 	 -0.716265 	 -2.040634 
H 	 4.134551 	 -5.010409 	 4.054624 
H 	 3.745341 	 -3.609091 	 4.590141 
H 	 7.147815 	 -3.752157 	 2.932648 
H 	 -7.206163 	 -4.993595 	 3.646588 
H 	 -5.896451 	 -4.814970 	 6.228558 
H 	 -6.990749 	 -3.767341 	 6.199687 
H 	 -5.849163 	 0.206134 	 1.464887 
H 	 -7.371390 	 -0.267008 	 1.560812 
H 	 -3.966480 	 -6.151575 	 0.524869 
H 	 -2.383496 	 -6.477551 	 0.480514 
H 	 5.005274 	 5.866198 	 5.607604 
H 	 4.288353 	 6.922228 	 6.528637 
H 	 7.078286 	 4.278815 	 5.885396 
H 	 5.708206 	 3.724628 	 5.300949 
H 	 -5.552103 	 -7.235475 	 -6.457360 
H 	 -5.743154 	 6.232123 	 -6.670804 
H 	 -1.848595 	 5.036357 	 -3.306451 
H 	 -2.609025 	 3.917983 	 -4.196055 
H 	 -0.500896 	 -3.835888 	 -4.306584 
H 	 -0.234384 	 -4.054271 	 -5.859098 
H 	 -5.489335 	 6.158658 	 -4.116090 
H 	 -5.792630 	 4.670464 	 -4.117376 
H 	 -3.215558 	 -6.739258 	 -5.985905 
H 	 -2.364614 	 -5.416601 	 -5.585012 
H 	 4.599637 	 -4.302622 	 -7.086723 
H 	 4.774841 	 -4.418015 	 6.283194 
H 	 -2.156209 	 3.483017 	 -1.773436 
H 	 -2.234986 	 1.924967 	 -1.628576 
H 	 5.913151 	 3.205630 	 -0.621802 
H 	 5.488286 	 1.768867 	 -0.358209 
H 	 -7.087650 	 -3.646562 	 -1.651048 
H 	 6.919095 	 -3.594173 	 -0.401525 
H 	 2.655232 	 -1.811194 	 -3.370323 
H 	 1.765195 	 -2.961307 	 -2.712008 
H 	 3.061127 	 2.816308 	 -2.719428 
H 	 3.052728 	 4.014431 	 -1.734678 
H 	 -5.707345 	 -3.544307 	 2.104988 
H 	 -5.887663 	 -2.223295 	 1.338598 
H 	 1.919132 	 -4.138261 	 -6.130940 
H 	 1.333632 	 -3.700400 	 -7.517955 
H 	 3.622865 	 2.591188 	 6.195192 
H 	 4.179785 	 1.436778 	 5.356604 
H 	 6.178867 	 -5.547589 	 0.868118 
H 	 -7.304373 	 -5.994854 	 1.328360 
H 	 -1.761217 	 -2.153637 	 3.700730 
H 	 -0.644812 	 -1.930231 	 4.590880 
H 	 -5.395300 	 -1.362005 	 -1.886437 
H 	 -4.678176 	 -0.006982 	 -1.804379 
H 	 -6.764870 	 -1.773487 	 4.304831 
H 	 -7.510685 	 -1.516178 	 5.634233 
H 	 -0.677377 	 1.616476 	 5.363765 
H 	 -1.156241 	 0.287545 	 4.788042 
H 	 2.956581 	 4.704288 	 -5.562071 
H 	 4.196064 	 4.410734 	 -6.404934 
H 	 -5.506793 	 3.197413 	 -1.868315 
H 	 -4.168493 	 3.410278 	 -2.625550 
H 	 -1.464347 	 -2.381018 	 -7.092529 
H 	 -0.959696 	 -3.652201 	 7.010828 
H 	 6.583953 	 -1.681916 	 -5.391198 
H 	 6.998320 	 -0.672768 	 -4.279171 
H 	 3.376485 	 2.361771 	 -5.122478 
H 	 4.806222 	 1.854426 	 -5.027878 
H 	 -3.918533 	 -2.357720 	 3.115972 
H 	 -3.633810 	 -2.337579 	 4.642649 
H 	 0.613144 	 1.447868 	 1.503259 
H 	 -0.603494 	 0.558608 	 1.440220 
H 	 4.183239 	 5.502755 	 -0.005013 
H 	 2.930332 	 5.896314 	 -0.919968 
H 	 -5.884525 	 -4.793918 	 -4.761949 
H 	 -6.341412 	 -4.927668 	 -6.270478 
H 	 3.319871 	 0.396578 	 -0.573092 
H 	 2.570701 	 1.619836 	 -0.905905 
H 	 5.597477 	 -3.560683 	 -2.897413 
H 	 4.671936 	 -4.794163 	 -2.550898 
H 	 -4.820230 	 -4.791143 	 -2.435100 
H 	 -5.459745 	 -5.880922 	 -1.537676 
H 	 -3.525542 	 -5.324239 	 6.914423 
H 	 -2.961566 	 -4.057106 	 6.348545 
H 	 -0.367386 	 -0.010259 	 -4.170120 
H 	 0.693057 	 -1.094026 	 -4.216228 
H 	 -1.485956 	 5.653237 	 -6.039048 
H 	 -2.698704 	 5.289083 	 -5.138219 
H 	 1.173105 	 -5.587229 	 -3.629237 
H 	 2.513403 	 -5.249739 	 -2.823686 
H 	 -6.551867 	 4.305835 	 3.727901 
H 	 -5.514330 	 3.630711 	 2.693435 
H 	 3.173644 	 0.631673 	 6.995368 
H 	 4.222127 	 -0.473427 	 6.949029 
H 	 0.251062 	 3.548436 	 -6.340013 
H 	 0.413121 	 2.337433 	 -7.289895 
H 	 -5.742976 	 1.052679 	 -4.933437 
H 	 -5.246836 	 0.307819 	 -6.309688 
H 	 -5.152385 	 3.125033 	 6.967667 
H 	 -6.015257 	 2.586500 	 -6.862824 
H 	 -5.353043 	 -5.664657 	 2.700886 
H 	 -5.836738 	 -6.961257 	 3.374939 
H 	 0.013711 	 7.127438 	 7.096441 
H 	 -0.965028 	 -6.641947 	 -7.406056 
H 	 3.908372 	 6.423197 	 -4.005034 
H 	 2.617740 	 5.810546 	 -3.458899 
H 	 -0.446511 	 3.143121 	 -0.198001 
H 	 1.097814 	 3.451383 	 -0.405081 
H 	 -2.805672 	 2.730956 	 3.093899 
H 	 -3.687171 	 2.142418 	 4.179371 
H 	 3.418646 	 -6.280009 	 -0.315171 
H 	 4.456708 	 -6.816371 	 -1.272472 
H 	 -1.081782 	 0.236318 	 -7.590918 
H 	 -0.538199 	 -0.206154 	 -6.233665 
H 	 4.228871 	 -1.234659 	 3.615018 
H 	 5.525187 	 -0.676949 	 3.151547 
H 	 1.056949 	 -4.083446 	 5.250025 
H 	 0.478791 	 -5.316984 	 4.579951 
H 	 -0.312376 	 -6.001407 	 -0.458129 
H 	 -1.464128 	 -6.472492 	 -1.413614 
H 	 1.758872 	 3.583235 	 5.254205 
H 	 1.871846 	 2.062814 	 4.775778 
H 	 -0.996132 	 6.021648 	 0.913084 
H 	 -1.104140 	 4.605740 	 1.439676 
H 	 6.848754 	 4.680383 	 -6.675441 
H 	 6.963240 	 5.062244 	 -5.255020 
H 	 -2.692047 	 -0.279675 	 -3.147315 
H 	 -2.734804 	 -0.862917 	 -1.694083 
H 	 1.974767 	 -1.513495 	 6.284892 
H 	 0.375877 	 -1.707959 	 6.338751 
H 	 6.191338 	 6.128757 	 1.089331 
H 	 5.435090 	 5.262770 	 2.131971 
H 	 -4.290153 	 2.178035 	 1.141929 
H 	 -5.580133 	 1.979876 	 0.346760 
H 	 -5.489025 	 -2.354669 	 7.058845 
H 	 -5.052655 	 -3.094230 	 -6.591239 
H 	 -4.453734 	 -0.063031 	 5.327881 
H 	 -3.661165 	 -0.842459 	 6.326181 
H 	 1.111309 	 -5.714012 	 1.600766 
H 	 2.465587 	 -6.431018 	 2.033241 
H 	 6.708287 	 -7.208352 	 -3.847708 
H 	 6.105885 	 7.309642 	 -5.220596 
H 	 0.886513 	 6.175150 	 -5.810934 
H 	 0.003474 	 5.520161 	 -4.696034 
H 	 5.501294 	 1.594610 	 -7.260245 
H 	 6.801934 	 1.781659 	 -6.382021 
H 	 -3.204291 	 0.145591 	 1.434344 
H 	 -2.256740 	 -0.466650 	 2.503886 
H 	 2.585528 	 7.378443 	 -6.218084 
H 	 2.256849 	 -6.135177 	 -6.903612 
H 	 -2.496382 	 -2.561399 	 -3.827991 
H 	 -2.843555 	 -1.686241 	 -5.153667 
H 	 -2.405686 	 2.851062 	 6.322820 
H 	 -3.095362 	 1.463051 	 6.265120 
H 	 -7.278603 	 -0.570929 	 -0.693367 
H 	 6.766853 	 -1.822563 	 -0.915097 
H 	 2.879104 	 -2.598644 	 -0.079420 
H 	 3.954481 	 -1.902370 	 -1.008244 
H 	 4.779322 	 3.233556 	 1.455946 
H 	 5.115913 	 3.189593 	 2.948665 
H 	 -4.364231 	 6.135935 	 2.607762 
H 	 -2.909701 	 5.577698 	 2.489672 
H 	 4.383777 	 -4.725180 	 1.464551 
H 	 4.859820 	 -3.437137 	 0.873839 
H 	 4.969035 	 -1.141658 	 -3.974656 
H 	 3.886334 	 0.038090 	 -3.820450 
H 	 3.697192 	 -1.826380 	 -6.297510 
H 	 3.570778 	 -2.729567 	 -4.968031 
H 	 0.427581 	 7.251585 	 -3.629124 
H 	 -0.338591 	 -6.913835 	 -4.672968 
H 	 6.500657 	 -7.233504 	 4.926278 
H 	 6.838262 	 7.181327 	 3.483723 
H 	 1.198504 	 4.805231 	 1.901081 
H 	 2.511791 	 4.789311 	 2.720351 
H 	 0.765711 	 7.007691 	 3.345754 
H 	 0.564772 	 7.289518 	 4.899305 
H 	 -6.179495 	 4.613285 	 0.865366 
H 	 -5.334717 	 5.488916 	 -0.103010 
H 	 6.783311 	 2.225530 	 2.417753 
H 	 6.897411 	 1.796615 	 3.892607 
H 	 1.578925 	 7.046722 	 -0.006592 
H 	 0.598627 	 6.906349 	 -1.021636 
H 	 -0.901030 	 -3.675740 	 2.401607 
H 	 -1.617572 	 -3.964008 	 1.034229 
H 	 -4.055293 	 6.840739 	 6.465453 
H 	 -4.062368 	 6.080135 	 5.097427 
H 	 -3.570641 	 6.740745 	 -0.204919 
H 	 -3.030633 	 5.532520 	 -1.048774 
H 	 -2.352050 	 7.426183 	 -3.337466 
H 	 -3.248049 	 -6.275021 	 -2.852719 
H 	 -7.536812 	 -7.162290 	 -1.117237 
H 	 -6.840836 	 6.442393 	 -1.313126 
H 	 2.505428 	 0.231362 	 3.436619 
H 	 3.380641 	 1.177965 	 2.613337 
H 	 6.189238 	 5.081320 	 -2.503129 
H 	 5.248562 	 3.888115 	 -2.658376 
H 	 0.671139 	 -1.532811 	 0.391921 
H 	 0.307658 	 -2.939927 	 0.946394 
H 	 0.021563 	 3.133491 	 3.578310 
H 	 -0.842226 	 4.049892 	 4.503156 
H 	 1.741132 	 -2.333696 	 3.598644 
H 	 1.919794 	 -1.892937 	 2.145177 
H 	 -6.425024 	 -2.417263 	 -3.844206 
H 	 -4.822413 	 -2.690788 	 -3.853490 
H 	 5.627993 	 -2.409885 	 6.830536 
H 	 5.465311 	 -1.424054 	 5.555030 
H 	 -2.992513 	 -2.025262 	 0.331405 
H 	 -3.624772 	 -3.341104 	 0.130277 
H 	 6.974327 	 1.410084 	 -3.306493 
H 	 -6.762473 	 0.581531 	 -2.636196 
H 	 -0.771528 	 4.913370 	 6.719685 
H 	 -1.944369 	 5.576845 	 5.850951 
H 	 -3.064522 	 2.072227 	 -5.795508 
H 	 -1.663733 	 2.316996 	 -5.349836 
H 	 -6.766956 	 0.688455 	 5.463405 
H 	 -6.475463 	 2.153470 	 5.873394 
H 	 -0.012327 	 5.121242 	 -2.651010 
O 	 6.328212 	 -7.194946 	 7.008453 
O 	 3.754038 	 -6.711832 	 3.080704 
O 	 1.718521 	 5.165057 	 6.237949 
O 	 -1.162010 	 -3.218435 	 -2.342332 
O 	 0.407253 	 0.010263 	 -1.451080 
O 	 3.763210 	 -4.538606 	 4.836116 
O 	 -7.005506 	 -4.061026 	 3.479964 
O 	 -6.807284 	 -4.647266 	 6.573997 
O 	 -6.476929 	 -0.355795 	 1.956295 
O 	 -3.222772 	 -6.639377 	 0.976102 
O 	 4.127970 	 6.265164 	 5.821573 
O 	 6.418692 	 4.398788 	 5.193042 
O 	 -5.554389 	 7.016623 	 -7.191984 
O 	 -2.713906 	 4.522735 	 -3.435109 
O 	 -0.923119 	 -4.093212 	 -5.134235 
O 	 -6.068449 	 5.488127 	 -4.567602 
O 	 -2.645688 	 -5.996999 	 -6.279092 
O 	 5.318946 	 -4.352015 	 7.134326 
O 	 -1.775715 	 2.716568 	 -1.346834 
O 	 6.002296 	 2.494790 	 0.078739 
O 	 6.871348 	 -3.565160 	 -1.364971 
O 	 1.747486 	 -2.114727 	 -3.198495 
O 	 2.465992 	 3.492253 	 -2.355717 
O 	 -5.247340 	 -2.969090 	 1.450993 
O 	 1.254022 	 -4.423956 	 -6.813760 
O 	 4.447040 	 2.075602 	 6.064633 
O 	 6.956187 	 -6.059308 	 0.608420 
O 	 -0.907396 	 -1.687185 	 3.684033 
O 	 -5.394887 	 -0.517126 	 -1.426118 
O 	 -6.645820 	 -1.353305 	 5.191362 
O 	 -0.563118 	 0.635042 	 5.472577 
O 	 3.309626 	 4.073329 	 -6.209361 
O 	 -4.972889 	 2.854194 	 -2.583258 
O 	 -1.674149 	 -3.006353 	 7.104442 
O 	 6.625445 	 -1.595973 	 -4.421481 
O 	 3.958495 	 1.883793 	 -4.521735 
O 	 -3.438819 	 -2.872058 	 3.834816 
O 	 0.241516 	 0.661783 	 1.946255 
O 	 3.776875 	 5.418053 	 -0.891311 
O 	 -5.958783 	 -5.431611 	 -5.506720 
O 	 3.323157 	 1.342956 	 -0.319270 
O 	 4.806344 	 -4.079509 	 -3.215884 
O 	 -4.654442 	 -5.319554 	 -1.608027 
O 	 -3.478810 	 -4.840742 	 6.057810 
O 	 0.506719 	 -0.213097 	 -4.561719 
O 	 -2.441370 	 5.646453 	 -5.991035 
O 	 1.555375 	 -5.039709 	 -2.890261 
O 	 -6.469552 	 3.838968 	 2.887098 
O 	 3.265778 	 -0.339718 	 6.772235 
O 	 -0.253427 	 2.848099 	 -6.814444 
O 	 -5.338007 	 1.170213 	 -5.821822 
O 	 -6.085521 	 3.230798 	 -7.628733 
O 	 -5.162126 	 -6.600091 	 2.758852 
O 	 -0.515414 	 -7.021417 	 6.718321 
O 	 3.134259 	 5.904326 	 -4.261212 
O 	 0.421717 	 3.267948 	 0.245035 
O 	 -3.445204 	 2.018082 	 3.239108 
O 	 4.267380 	 -6.007778 	 -0.742772 
O 	 -1.248317 	 -0.411910 	 -6.877688 
O 	 5.181392 	 -1.420347 	 3.685046 
O 	 0.214731 	 -4.422876 	 4.885581 
O 	 -1.044218 	 -6.645059 	 -0.517517 
O 	 1.611528 	 2.651367 	 5.507550 
O 	 -1.314479 	 5.520536 	 1.687038 
O 	 6.280285 	 4.722545 	 -5.879662 
O 	 -2.637435 	 -0.048552 	 -2.212524 
O 	 1.232744 	 -2.147955 	 6.179797 
O 	 5.550885 	 6.189224 	 1.794133 
O 	 -4.737534 	 1.512439 	 0.559699 
O 	 -4.990192 	 -2.234479 	 -7.011333 
O 	 -3.540197 	 -0.282944 	 5.521565 
O 	 1.916414 	 -6.158726 	 1.248893 
O 	 5.982068 	 7.151533 	 -4.256718 
O 	 0.411833 	 5.363554 	 -5.593202 
O 	 6.001610 	 1.245629 	 -6.475952 
O 	 -2.417180 	 -0.427447 	 1.547730 
O 	 2.902049 	 -6.891485 	 -6.889016 
O 	 -3.155181 	 -1.945850 	 -4.272141 
O 	 -3.296997 	 2.414329 	 6.418953 
O 	 6.669645 	 -0.841055 	 -0.692196 
O 	 3.754223 	 -2.123667 	 -0.060107 
O 	 4.443578 	 3.563087 	 2.337058 
O 	 -3.770505 	 5.441411 	 2.972545 
O 	 5.047682 	 -4.038519 	 1.615013 
O 	 4.185593 	 -0.835796 	 -3.451115 
O 	 3.633223 	 -2.726076 	 -5.947710 
O 	 0.568050 	 -7.034613 	 -4.391271 
O 	 7.145300 	 -7.115746 	 4.205664 
O 	 1.599779 	 5.153032 	 2.707930 
O 	 0.811573 	 -7.212370 	 4.043640 
O 	 -6.095336 	 4.885850 	 -0.071155 
O 	 6.266783 	 1.750375 	 3.117749 
O 	 1.431561 	 6.492021 	 -0.810252 
O 	 -0.870324 	 -4.241171 	 1.623205 
O 	 -3.584214 	 6.769903 	 5.600989 
O 	 -3.870332 	 5.993488 	 -0.795757 
O 	 -2.342385 	 -6.515991 	 -3.162081 
O 	 -7.035174 	 7.275119 	 -1.808892 
O 	 3.186586 	 0.932330 	 3.553419 
O 	 6.062116 	 4.174694 	 -2.192089 
O 	 1.048863 	 -2.336576 	 0.801816 
O 	 -0.877013 	 3.432798 	 3.744033 
O 	 2.348503 	 -1.814983 	 3.024519 
O 	 -5.679473 	 -2.807883 	 -3.358604 
O 	 5.789959 	 -1.522255 	 6.475283 
O 	 -2.864798 	 -2.838190 	 -0.231797 
O 	 -7.212057 	 0.770756 	 -3.496311 
O 	 -1.283906 	 4.836160 	 5.892537 
O 	 -2.505218 	 1.971160 	 -4.990230 
O 	 -6.516669 	 1.551285 	 5.091884 
O 	 -0.495667 	 5.789277 	 -3.116445 
K 	 -2.222594 	 -6.220801 	 3.874505 
