333
conformation = 24
H 	 -6.377413 	 -3.318307 	 -5.577026 
H 	 7.376354 	 -2.227896 	 -5.527161 
H 	 4.193313 	 -3.333052 	 5.698369 
H 	 5.228833 	 -3.659225 	 4.660383 
H 	 2.951660 	 -6.009244 	 -5.806847 
H 	 3.792362 	 -5.249889 	 -6.870841 
H 	 0.593013 	 0.234990 	 -0.034734 
H 	 -0.753292 	 0.838816 	 0.552382 
H 	 0.592901 	 4.104100 	 0.405349 
H 	 2.002854 	 3.424815 	 0.334633 
H 	 5.192781 	 -1.227414 	 6.296144 
H 	 4.962798 	 0.306096 	 6.453704 
H 	 -6.803057 	 0.225044 	 5.534422 
H 	 -6.227457 	 -1.131125 	 6.009011 
H 	 -4.509907 	 -0.859517 	 -6.478797 
H 	 -5.855024 	 -0.221447 	 -7.029430 
H 	 -4.696176 	 4.139484 	 3.434928 
H 	 -6.143120 	 3.713294 	 3.702204 
H 	 -2.685511 	 -2.077445 	 2.498650 
H 	 -1.228552 	 -2.380427 	 2.531138 
H 	 6.141408 	 -5.048754 	 -7.060357 
H 	 5.433148 	 -3.919951 	 -6.247887 
H 	 -6.397335 	 -6.127282 	 7.430598 
H 	 -7.498671 	 -7.245278 	 -7.352474 
H 	 -4.330943 	 -3.292948 	 -4.431237 
H 	 -4.388344 	 -4.823839 	 -4.619286 
H 	 -0.807537 	 -5.956541 	 -1.061668 
H 	 -1.393555 	 7.642649 	 -1.779441 
H 	 0.616592 	 0.453757 	 -2.324566 
H 	 1.179344 	 -0.366065 	 -3.582464 
H 	 -4.278701 	 -4.949569 	 -1.869415 
H 	 -4.691946 	 -6.452670 	 -2.167226 
H 	 -1.675084 	 -2.792841 	 -3.792328 
H 	 -0.957459 	 -1.377546 	 -3.512204 
H 	 5.837519 	 -0.047394 	 -4.962377 
H 	 5.763607 	 -0.570259 	 -6.397002 
H 	 -0.875435 	 7.402167 	 0.018248 
H 	 -1.254806 	 5.999266 	 0.421156 
H 	 6.953374 	 6.973517 	 1.330749 
H 	 6.512068 	 5.623065 	 1.959834 
H 	 -6.025181 	 0.459843 	 -0.117026 
H 	 -6.404141 	 -0.531926 	 1.011053 
H 	 3.652882 	 2.016850 	 -0.868858 
H 	 2.818831 	 0.772787 	 -1.350008 
H 	 3.846642 	 6.898335 	 -0.986987 
H 	 4.536628 	 7.647693 	 0.195884 
H 	 -5.014773 	 0.386993 	 3.910325 
H 	 -4.584928 	 1.914876 	 3.798252 
H 	 3.179365 	 -0.460729 	 -4.370072 
H 	 2.387149 	 0.386715 	 -5.294247 
H 	 4.694157 	 6.789294 	 -6.630102 
H 	 5.401090 	 6.007286 	 7.190312 
H 	 7.395850 	 -1.477650 	 3.253520 
H 	 -6.271314 	 -2.338171 	 3.740448 
H 	 -0.582961 	 1.737657 	 6.145325 
H 	 0.902490 	 1.769661 	 6.501611 
H 	 -4.140653 	 2.663362 	 0.162163 
H 	 -3.482849 	 3.885889 	 0.897122 
H 	 -5.871698 	 2.522263 	 6.474563 
H 	 -6.553217 	 2.440254 	 -7.038417 
H 	 1.162761 	 5.203462 	 7.429866 
H 	 0.185513 	 4.109493 	 6.909531 
H 	 4.456543 	 -6.100597 	 -3.374121 
H 	 5.632717 	 -6.715774 	 -4.210737 
H 	 -4.590825 	 7.457624 	 0.066391 
H 	 -3.240230 	 7.576102 	 -0.620079 
H 	 -0.437099 	 1.730416 	 -5.178132 
H 	 -0.074192 	 0.208768 	 -5.187545 
H 	 -7.211169 	 2.418607 	 -3.208947 
H 	 -6.748985 	 3.060098 	 -1.898813 
H 	 4.859647 	 6.763827 	 -2.911296 
H 	 5.720942 	 5.411347 	 -2.859353 
H 	 -3.081285 	 1.053689 	 5.465299 
H 	 -2.628741 	 1.848639 	 6.724489 
H 	 1.616622 	 5.340487 	 3.530747 
H 	 0.382520 	 4.409414 	 3.735954 
H 	 5.055739 	 -5.176247 	 2.273957 
H 	 3.990425 	 -5.134249 	 1.143233 
H 	 -4.663078 	 -0.652120 	 -2.582220 
H 	 -5.524068 	 -1.166433 	 -3.785377 
H 	 4.416887 	 4.307367 	 1.835369 
H 	 3.866316 	 5.625168 	 1.198607 
H 	 6.367899 	 0.522141 	 -1.327529 
H 	 6.001858 	 -0.677470 	 -0.321866 
H 	 -3.772660 	 -0.379043 	 0.650860 
H 	 -4.379311 	 -1.849710 	 0.750185 
H 	 -2.198520 	 -1.281050 	 -6.118721 
H 	 -2.014164 	 0.107987 	 -6.593422 
H 	 1.245412 	 4.159381 	 -1.703752 
H 	 2.094706 	 2.934135 	 -2.168548 
H 	 -0.364029 	 -5.250857 	 -3.722944 
H 	 -1.772492 	 -5.438413 	 -3.020909 
H 	 2.458666 	 -1.896857 	 -0.925552 
H 	 3.656944 	 -1.133417 	 -1.180438 
H 	 -5.262556 	 -6.024424 	 5.186115 
H 	 -4.383729 	 7.629654 	 5.190989 
H 	 4.381180 	 4.599864 	 -6.237786 
H 	 5.338498 	 3.366402 	 -6.067154 
H 	 1.201742 	 -7.182609 	 -4.276548 
H 	 1.751570 	 6.533004 	 -5.157693 
H 	 -4.809788 	 5.456869 	 -2.824801 
H 	 -4.231920 	 4.308393 	 -3.845006 
H 	 -4.075659 	 7.535438 	 -5.829835 
H 	 -4.656508 	 6.443253 	 -4.936269 
H 	 -3.838022 	 -1.672757 	 5.131752 
H 	 -4.573214 	 -2.874977 	 5.774978 
H 	 1.032214 	 -3.976123 	 -5.803885 
H 	 -0.004326 	 -2.904553 	 -5.468485 
H 	 4.912265 	 -4.662559 	 -1.798764 
H 	 3.903924 	 -5.783204 	 -1.606311 
H 	 0.998704 	 6.703907 	 1.846421 
H 	 2.348608 	 7.460310 	 2.035390 
H 	 -1.309532 	 6.095007 	 5.650585 
H 	 -2.796908 	 6.398297 	 6.149882 
H 	 4.585214 	 -1.716852 	 1.594327 
H 	 5.506934 	 -2.848835 	 1.144979 
H 	 0.109009 	 4.033670 	 -5.574765 
H 	 0.509406 	 3.895431 	 -4.109662 
H 	 5.320484 	 2.716612 	 5.610680 
H 	 6.479068 	 3.642099 	 5.841467 
H 	 1.963049 	 0.062996 	 7.454277 
H 	 1.794130 	 -1.384152 	 6.845450 
H 	 0.624400 	 -1.785785 	 1.664753 
H 	 -0.214072 	 -2.622898 	 0.623082 
H 	 2.636704 	 7.458636 	 -7.248549 
H 	 3.223646 	 6.288413 	 6.955992 
H 	 -0.171611 	 -5.014962 	 2.959949 
H 	 0.236808 	 -6.203885 	 3.874226 
H 	 -6.768837 	 -6.201584 	 -4.383935 
H 	 -7.296492 	 -5.623357 	 -3.068893 
H 	 -2.111678 	 3.569140 	 -0.978623 
H 	 -1.429956 	 2.992564 	 0.308523 
H 	 3.100016 	 2.586636 	 -6.290617 
H 	 1.580659 	 2.313247 	 -6.056973 
H 	 7.264648 	 -4.500605 	 3.151344 
H 	 6.516615 	 -5.712469 	 3.947429 
H 	 -3.390929 	 5.736925 	 3.580377 
H 	 -3.901790 	 6.121739 	 2.127607 
H 	 -4.644187 	 1.384026 	 -5.569184 
H 	 -3.575225 	 0.998470 	 -4.671797 
H 	 -3.078918 	 4.255832 	 7.039645 
H 	 -2.979040 	 3.497870 	 -6.486063 
H 	 2.556689 	 -1.469058 	 3.611053 
H 	 3.778497 	 -2.454548 	 3.984329 
H 	 -6.947006 	 -3.430639 	 -1.490561 
H 	 -7.455636 	 -3.449417 	 -2.976420 
H 	 1.948708 	 -4.549134 	 -3.533034 
H 	 1.328834 	 -5.615614 	 -2.555974 
H 	 6.463322 	 5.341738 	 -5.239232 
H 	 -7.476524 	 6.241465 	 -4.514679 
H 	 -2.040089 	 4.169679 	 3.514962 
H 	 -1.447774 	 3.441415 	 4.783369 
H 	 3.989336 	 -2.534194 	 -3.869893 
H 	 3.221285 	 -2.440405 	 -5.152350 
H 	 -1.384379 	 1.433223 	 -1.893099 
H 	 -2.068561 	 2.137344 	 -3.151219 
H 	 -1.460276 	 7.196777 	 -6.575369 
H 	 -1.699284 	 5.725862 	 -6.582552 
H 	 -6.196874 	 3.367063 	 1.408335 
H 	 -7.347112 	 2.314665 	 1.256638 
H 	 3.910382 	 1.799867 	 1.896380 
H 	 5.249713 	 1.921104 	 1.230019 
H 	 5.973455 	 7.025802 	 3.517122 
H 	 6.178750 	 7.118381 	 5.039376 
H 	 -2.797449 	 -4.665099 	 4.561619 
H 	 -1.735685 	 -5.685682 	 4.602529 
H 	 5.293064 	 -0.569518 	 3.837478 
H 	 6.059406 	 0.752203 	 3.505819 
H 	 6.139139 	 2.942499 	 -1.763343 
H 	 4.981967 	 4.048080 	 -1.740463 
H 	 4.349765 	 2.001544 	 -4.332068 
H 	 4.686922 	 1.145722 	 -3.052372 
H 	 1.230727 	 -3.804569 	 -1.788354 
H 	 0.883171 	 -2.400592 	 -2.283175 
H 	 -6.725663 	 -2.958716 	 7.262780 
H 	 7.367241 	 -3.120569 	 5.986410 
H 	 2.380889 	 -6.449945 	 4.190141 
H 	 3.734234 	 -5.888683 	 4.640462 
H 	 2.270952 	 -3.677197 	 5.283137 
H 	 1.673912 	 -4.045522 	 6.727116 
H 	 -5.554361 	 -6.220385 	 2.846917 
H 	 -4.163178 	 -6.048130 	 2.148241 
H 	 -6.948637 	 6.037155 	 4.450439 
H 	 -6.735025 	 5.604455 	 5.906215 
H 	 1.855742 	 -3.459072 	 1.705004 
H 	 1.699154 	 -4.485034 	 0.612518 
H 	 0.612662 	 0.290727 	 4.770360 
H 	 -0.590668 	 0.221428 	 3.814500 
H 	 -3.137712 	 -4.127007 	 -6.606690 
H 	 -2.649876 	 -4.813300 	 6.893790 
H 	 -2.063866 	 -4.370147 	 2.115408 
H 	 -2.115481 	 -5.170907 	 0.742620 
H 	 -1.163863 	 -3.536088 	 -0.976219 
H 	 -1.971845 	 -2.288417 	 -0.560687 
H 	 -6.584047 	 -3.105729 	 1.285828 
H 	 -5.702954 	 -4.283520 	 0.839068 
H 	 3.856902 	 4.209547 	 5.140968 
H 	 4.779239 	 5.440530 	 4.867354 
H 	 -7.317748 	 -5.849298 	 -0.085567 
H 	 6.699072 	 -6.866402 	 -0.943071 
H 	 1.516550 	 2.522713 	 2.552119 
H 	 1.364220 	 1.013727 	 3.000872 
H 	 1.029204 	 7.037925 	 5.652886 
H 	 0.055230 	 -6.959956 	 6.584016 
H 	 2.818754 	 1.954282 	 6.147858 
H 	 2.758594 	 2.015813 	 4.552743 
H 	 -5.212032 	 1.681932 	 -1.526253 
H 	 -3.599320 	 1.688164 	 -1.615998 
H 	 6.702389 	 1.554701 	 -5.918264 
H 	 6.595856 	 2.542487 	 -7.188793 
H 	 -1.612283 	 1.818146 	 2.616823 
H 	 -2.790357 	 1.092856 	 2.033293 
H 	 -6.906449 	 5.223713 	 -1.124788 
H 	 -5.709642 	 4.536636 	 -0.457529 
H 	 -0.049084 	 -6.673071 	 -6.094408 
H 	 -0.870810 	 -5.448108 	 -6.711083 
H 	 -2.234859 	 5.640868 	 -2.928018 
H 	 -0.731397 	 5.846804 	 -3.491910 
H 	 -5.281078 	 4.413337 	 7.285044 
H 	 -5.271091 	 5.916737 	 -6.953850 
H 	 1.399413 	 -5.921944 	 -0.439952 
O 	 -7.291056 	 -3.116863 	 -5.871407 
O 	 4.895489 	 -2.878874 	 5.160589 
O 	 2.909942 	 -5.691634 	 -6.736877 
O 	 -0.122602 	 0.875968 	 -0.207544 
O 	 1.391415 	 3.917442 	 0.927571 
O 	 4.852205 	 -0.554099 	 6.922016 
O 	 -5.948905 	 -0.246741 	 5.625385 
O 	 -5.459751 	 -0.600180 	 -6.223867 
O 	 -5.249116 	 3.665834 	 4.109717 
O 	 -2.041890 	 -2.637520 	 3.023356 
O 	 5.345532 	 -4.521805 	 -6.987313 
O 	 -7.275141 	 -6.401588 	 7.117683 
O 	 -4.582764 	 -3.997089 	 -5.103399 
O 	 -1.662973 	 -6.374372 	 -1.400728 
O 	 0.377249 	 -0.042771 	 -3.122745 
O 	 -4.808331 	 -5.524041 	 -2.463345 
O 	 -1.425975 	 -1.905911 	 -4.204854 
O 	 6.417373 	 -0.325193 	 -5.720952 
O 	 -0.607392 	 6.727650 	 0.669744 
O 	 7.119150 	 6.383761 	 2.081817 
O 	 -6.540398 	 0.389085 	 0.712478 
O 	 2.722241 	 1.665151 	 -0.949739 
O 	 3.670654 	 7.474353 	 -0.202258 
O 	 -4.285217 	 0.975985 	 3.619419 
O 	 2.315952 	 -0.462685 	 -4.830924 
O 	 5.474537 	 6.164608 	 -6.741377 
O 	 -6.728586 	 -2.021503 	 2.915244 
O 	 0.279053 	 2.167315 	 5.877853 
O 	 -4.361537 	 3.505315 	 0.655614 
O 	 -5.656755 	 2.459931 	 7.419821 
O 	 0.361592 	 4.715141 	 -7.225596 
O 	 4.642328 	 -6.815747 	 -4.070786 
O 	 -3.945316 	 6.897988 	 -0.429689 
O 	 -0.705824 	 0.854663 	 -5.559172 
O 	 -7.270297 	 2.283611 	 -2.245235 
O 	 5.088052 	 5.948244 	 -2.347487 
O 	 -2.266908 	 1.278806 	 6.000718 
O 	 1.240312 	 4.671442 	 4.118158 
O 	 4.943194 	 -5.361775 	 1.307430 
O 	 -4.781247 	 -1.397118 	 -3.194717 
O 	 4.465279 	 5.280561 	 1.903369 
O 	 5.759650 	 -0.258943 	 -1.188206 
O 	 -3.543513 	 -1.334736 	 0.599831 
O 	 -2.501599 	 -0.707220 	 -6.868490 
O 	 1.681049 	 3.780385 	 -2.515285 
O 	 -1.349850 	 -5.109443 	 -3.843592 
O 	 2.846435 	 -1.024730 	 -0.664573 
O 	 -5.337876 	 -6.990808 	 5.153985 
O 	 4.430045 	 3.703235 	 -5.898988 
O 	 0.916018 	 6.907400 	 -4.772542 
O 	 -4.296827 	 5.255887 	 -3.648349 
O 	 -4.923499 	 7.195087 	 -5.501480 
O 	 -4.018952 	 -2.623112 	 4.979081 
O 	 0.749691 	 -3.070624 	 -6.056040 
O 	 4.065951 	 -5.004700 	 -2.191404 
O 	 1.575884 	 7.129145 	 2.530127 
O 	 -2.282678 	 5.952227 	 5.454662 
O 	 5.523920 	 -1.914462 	 1.392584 
O 	 -0.159737 	 3.559869 	 -4.738925 
O 	 6.256600 	 2.692015 	 5.947424 
O 	 1.375067 	 -0.508475 	 6.922775 
O 	 0.073097 	 -2.594557 	 1.568544 
O 	 2.872053 	 6.494565 	 -7.052772 
O 	 -0.224074 	 -5.341958 	 3.887414 
O 	 7.320070 	 -6.063243 	 -3.883915 
O 	 -1.904942 	 3.792856 	 -0.040061 
O 	 2.374254 	 1.915446 	 -6.465468 
O 	 6.604734 	 -4.741722 	 3.821035 
O 	 -3.486153 	 5.431472 	 2.668144 
O 	 -3.996682 	 1.810748 	 -4.976070 
O 	 -2.504909 	 3.687091 	 -7.305416 
O 	 3.008337 	 -2.310791 	 3.390470 
O 	 7.198395 	 -3.671529 	 -2.098975 
O 	 1.568489 	 -5.463201 	 -3.562768 
O 	 7.143088 	 5.299544 	 -4.518322 
O 	 -1.345253 	 3.561422 	 3.815067 
O 	 4.073806 	 -2.769425 	 -4.809315 
O 	 -2.071931 	 2.066902 	 -2.185961 
O 	 -2.195654 	 6.564653 	 -6.386794 
O 	 -7.148845 	 3.170672 	 1.632460 
O 	 4.875338 	 1.758379 	 2.108552 
O 	 5.687635 	 7.527507 	 4.309800 
O 	 -2.593665 	 -5.484266 	 5.043620 
O 	 6.173852 	 -0.218539 	 3.675449 
O 	 5.370588 	 3.284927 	 -1.253513 
O 	 4.738938 	 1.175043 	 -4.029532 
O 	 1.655928 	 -2.998974 	 -2.172508 
O 	 -6.644818 	 -2.878874 	 6.273941 
O 	 2.755315 	 -5.780765 	 4.819544 
O 	 1.932353 	 -3.313486 	 6.129506 
O 	 -5.131628 	 -5.902041 	 2.028970 
O 	 -7.392062 	 5.580990 	 5.194647 
O 	 2.272367 	 -4.284480 	 1.438513 
O 	 0.283687 	 -0.180022 	 3.964126 
O 	 -2.469481 	 -4.141753 	 -7.307388 
O 	 -2.570283 	 -4.999095 	 1.577824 
O 	 -1.143005 	 -2.543140 	 -0.948067 
O 	 -6.182428 	 -3.544538 	 0.451321 
O 	 4.436325 	 4.875714 	 5.597877 
O 	 7.328653 	 -6.787129 	 -0.209656 
O 	 2.056084 	 1.722128 	 2.853710 
O 	 0.118418 	 7.373760 	 5.764409 
O 	 3.367577 	 2.088584 	 5.350274 
O 	 -4.380219 	 1.228391 	 -1.244702 
O 	 6.885659 	 2.495380 	 -6.210566 
O 	 -1.791738 	 1.169400 	 1.908063 
O 	 -6.196013 	 4.615560 	 -1.313293 
O 	 -0.106936 	 -6.020396 	 -6.827226 
O 	 -1.286147 	 5.889122 	 -2.697557 
O 	 -5.169903 	 5.396037 	 7.096257 
O 	 0.772491 	 -5.297235 	 -0.865182 
K 	 -1.084108 	 -2.350325 	 6.018066 
