333
conformation = 17
H 	 6.044951 	 -0.053030 	 -1.772012 
H 	 5.166389 	 1.243765 	 -1.706990 
H 	 2.454330 	 -0.410707 	 -4.980649 
H 	 2.738166 	 -0.447383 	 -6.496752 
H 	 -0.217587 	 -1.683984 	 -2.468024 
H 	 1.262557 	 -1.953235 	 -3.102661 
H 	 -2.053955 	 4.026870 	 4.054741 
H 	 -3.601495 	 3.939530 	 4.131932 
H 	 -2.276743 	 -7.361314 	 5.184113 
H 	 -1.636783 	 6.211616 	 4.835940 
H 	 2.119743 	 1.894161 	 -4.539960 
H 	 1.664683 	 3.376234 	 -4.810231 
H 	 5.391486 	 3.607907 	 -5.540732 
H 	 5.626663 	 2.250211 	 -4.802069 
H 	 -6.892095 	 2.435131 	 -2.677119 
H 	 6.782045 	 3.093766 	 -3.232018 
H 	 -7.271803 	 -7.381172 	 -7.446664 
H 	 6.269350 	 6.775986 	 -7.295941 
H 	 -5.254246 	 1.361204 	 6.537286 
H 	 -3.807800 	 0.852215 	 6.500782 
H 	 3.713343 	 -1.460309 	 -3.461872 
H 	 3.000804 	 -0.481099 	 -2.484026 
H 	 5.728545 	 -3.085925 	 -4.585814 
H 	 4.950430 	 -3.487820 	 -3.260803 
H 	 -6.725904 	 -0.117428 	 -0.821014 
H 	 7.515161 	 -1.417808 	 -0.487682 
H 	 -3.148761 	 -2.617296 	 2.571377 
H 	 -3.995949 	 -3.953230 	 2.222442 
H 	 -1.964374 	 3.656228 	 1.743821 
H 	 -1.106050 	 3.136816 	 0.502062 
H 	 -6.932898 	 -1.758614 	 2.002740 
H 	 -6.941334 	 -3.253293 	 1.881846 
H 	 -4.132120 	 0.485564 	 -0.061875 
H 	 -3.284513 	 1.895588 	 0.114325 
H 	 3.193159 	 2.948074 	 -1.264643 
H 	 3.369992 	 2.770022 	 -2.780061 
H 	 -3.449938 	 -4.235699 	 4.007727 
H 	 -3.269567 	 -5.886776 	 4.061333 
H 	 5.048335 	 -5.030926 	 5.119524 
H 	 4.075968 	 -6.108252 	 5.553185 
H 	 6.618346 	 3.700717 	 3.660458 
H 	 5.433063 	 2.946993 	 4.357842 
H 	 0.864551 	 5.293717 	 2.758692 
H 	 0.181248 	 3.915110 	 3.273151 
H 	 1.714566 	 -4.693579 	 3.186988 
H 	 1.578173 	 -3.592725 	 4.275018 
H 	 7.099485 	 3.738799 	 7.374414 
H 	 -7.247539 	 5.152052 	 -7.153530 
H 	 0.695060 	 2.702976 	 -1.102369 
H 	 -0.341876 	 3.820100 	 -1.481651 
H 	 2.207612 	 -5.137876 	 -2.553289 
H 	 2.958894 	 -5.381221 	 -3.851542 
H 	 5.169813 	 2.001959 	 7.243632 
H 	 6.289077 	 1.072920 	 -7.137636 
H 	 -3.170207 	 5.191278 	 -5.005366 
H 	 -1.984450 	 4.894293 	 -4.107249 
H 	 -7.157291 	 5.914295 	 4.161926 
H 	 -6.598557 	 7.348651 	 4.586590 
H 	 5.993921 	 5.352492 	 -4.161187 
H 	 6.085084 	 5.751347 	 -2.761263 
H 	 -1.504617 	 -6.472060 	 -3.387816 
H 	 -2.388882 	 7.257184 	 -3.850426 
H 	 1.701039 	 -2.957340 	 0.060876 
H 	 3.122515 	 -3.320901 	 -0.206680 
H 	 7.404557 	 -4.034706 	 4.009112 
H 	 -5.956436 	 -4.033457 	 3.633636 
H 	 -3.284213 	 5.078441 	 -1.954473 
H 	 -3.525713 	 4.214759 	 -0.679484 
H 	 5.217203 	 5.665479 	 0.646455 
H 	 5.456152 	 6.116517 	 2.074602 
H 	 2.277655 	 -4.774822 	 0.982523 
H 	 3.346705 	 -6.005340 	 1.076305 
H 	 -5.606057 	 4.440748 	 -5.744951 
H 	 -5.470996 	 5.493151 	 -4.620879 
H 	 -1.557504 	 -6.344794 	 7.432804 
H 	 -2.148014 	 7.428102 	 -6.629723 
H 	 2.932617 	 -1.743054 	 6.073941 
H 	 1.429636 	 -1.491546 	 5.604714 
H 	 -7.029080 	 2.550439 	 1.602317 
H 	 7.371626 	 2.525659 	 0.159585 
H 	 1.706183 	 7.441309 	 6.074424 
H 	 1.265625 	 -6.351396 	 5.215347 
H 	 3.553544 	 3.326381 	 1.879305 
H 	 3.519565 	 2.509934 	 3.235516 
H 	 -6.938567 	 2.527584 	 4.939733 
H 	 -6.742267 	 1.317826 	 4.071569 
H 	 -4.926815 	 2.681343 	 -2.229129 
H 	 -5.055226 	 3.372266 	 -3.562381 
H 	 -1.015452 	 -6.849693 	 1.484613 
H 	 -0.926386 	 6.638224 	 2.058432 
H 	 -3.124233 	 -1.730357 	 -0.068077 
H 	 -4.505446 	 -1.825391 	 0.664515 
H 	 -0.025238 	 1.817947 	 2.667896 
H 	 1.390553 	 2.148469 	 3.205794 
H 	 6.715324 	 -2.742686 	 -6.345475 
H 	 -6.843910 	 -3.339676 	 -5.768154 
H 	 1.909989 	 -7.166243 	 -2.249580 
H 	 2.572779 	 6.467247 	 -1.778720 
H 	 -1.237796 	 -4.055201 	 -0.262887 
H 	 -0.968931 	 -5.096989 	 -1.428545 
H 	 7.205621 	 -6.388322 	 1.084093 
H 	 -7.068293 	 -6.944696 	 -0.246553 
H 	 -6.620599 	 -4.412383 	 -1.825456 
H 	 7.259978 	 -4.554954 	 -0.689498 
H 	 -6.853553 	 1.585811 	 -6.177296 
H 	 7.487044 	 0.498204 	 -5.232349 
H 	 -2.332647 	 -0.344053 	 -2.714715 
H 	 -2.235638 	 0.715185 	 -1.623752 
H 	 2.091149 	 -1.012690 	 2.058755 
H 	 1.062658 	 -1.923233 	 2.719639 
H 	 -1.650253 	 -4.048543 	 6.138133 
H 	 -0.355619 	 -4.933795 	 5.941041 
H 	 -4.318167 	 -5.015300 	 -5.557502 
H 	 -5.543382 	 -5.416272 	 -4.751694 
H 	 2.102579 	 1.703545 	 5.417253 
H 	 2.819375 	 0.451363 	 5.084181 
H 	 -3.009145 	 -7.339589 	 -1.357627 
H 	 -2.268802 	 6.970670 	 -0.084404 
H 	 2.838989 	 5.619851 	 -5.197671 
H 	 3.514812 	 6.987565 	 -5.181235 
H 	 -1.385896 	 2.642443 	 -3.342571 
H 	 -0.753183 	 1.728397 	 -4.383189 
H 	 -1.726933 	 1.784729 	 5.600192 
H 	 -2.570005 	 1.144358 	 4.419170 
H 	 0.153918 	 -4.345014 	 -3.183368 
H 	 0.333652 	 -5.638202 	 -4.053509 
H 	 -2.925255 	 -2.115416 	 6.853315 
H 	 -2.352238 	 -2.780711 	 -6.784959 
H 	 5.674701 	 -2.863343 	 0.042391 
H 	 4.806236 	 -1.686181 	 -0.007827 
H 	 -4.611311 	 6.846405 	 3.048455 
H 	 -4.784613 	 6.157249 	 4.473664 
H 	 0.573259 	 5.816956 	 -2.463557 
H 	 -0.846397 	 5.968541 	 -1.799302 
H 	 4.881350 	 -1.251966 	 7.423354 
H 	 3.820918 	 -2.308318 	 -7.015315 
H 	 -5.562392 	 -5.502243 	 7.315441 
H 	 -5.293335 	 -5.963144 	 5.876636 
H 	 -7.239332 	 4.467070 	 -1.571643 
H 	 -5.867452 	 5.141595 	 -1.499232 
H 	 -5.557620 	 -7.152703 	 -3.859325 
H 	 -6.113544 	 6.636471 	 -3.044794 
H 	 -0.224541 	 1.743432 	 -7.220425 
H 	 0.628085 	 0.463474 	 -7.118072 
H 	 4.800973 	 -0.378684 	 2.739757 
H 	 4.947285 	 0.567391 	 1.647946 
H 	 -0.429995 	 -1.436313 	 0.220638 
H 	 -1.434439 	 -2.159746 	 1.246038 
H 	 4.331475 	 -6.511469 	 -1.596159 
H 	 4.531682 	 -5.208849 	 -0.836823 
H 	 -4.522751 	 7.474301 	 7.311132 
H 	 -4.543571 	 6.576824 	 -6.350083 
H 	 1.480474 	 0.528161 	 -0.047726 
H 	 0.623771 	 0.639119 	 -1.357888 
H 	 -3.814815 	 5.084684 	 1.890461 
H 	 -4.375333 	 5.941599 	 0.652228 
H 	 -4.074638 	 -4.173014 	 -2.680327 
H 	 -4.353592 	 -5.639104 	 -2.534484 
H 	 5.858912 	 6.625397 	 5.317038 
H 	 4.943820 	 5.627921 	 5.904623 
H 	 1.324223 	 4.800628 	 6.205177 
H 	 2.182965 	 5.473252 	 5.094676 
H 	 3.242538 	 -4.489808 	 7.151594 
H 	 3.694578 	 -4.625363 	 -6.261226 
H 	 -5.811967 	 -1.430063 	 -6.403637 
H 	 -4.462542 	 -2.194666 	 -6.430155 
H 	 2.952970 	 2.232993 	 -7.341392 
H 	 3.564938 	 3.449786 	 6.894473 
H 	 3.197425 	 6.376431 	 2.325338 
H 	 2.363655 	 -7.291045 	 2.740112 
H 	 1.265750 	 4.986034 	 -0.509868 
H 	 2.542346 	 4.871254 	 0.411859 
H 	 -1.209942 	 -0.470201 	 2.227573 
H 	 -1.990317 	 0.862220 	 1.886871 
H 	 5.587074 	 0.430363 	 -3.791664 
H 	 4.601574 	 0.144337 	 -4.908529 
H 	 -0.032755 	 -2.660023 	 -7.134991 
H 	 1.162358 	 -3.202224 	 -6.282823 
H 	 -0.894941 	 -0.498195 	 -5.898138 
H 	 -0.156202 	 -0.877699 	 -4.575525 
H 	 6.977681 	 -3.499735 	 6.262579 
H 	 -7.125835 	 -2.262893 	 5.913450 
H 	 4.971640 	 -6.563728 	 -6.713544 
H 	 5.999017 	 -6.320100 	 -5.534130 
H 	 -1.105237 	 -0.213679 	 5.557272 
H 	 -1.165322 	 -1.404999 	 4.623545 
H 	 -2.088206 	 3.535104 	 -5.894793 
H 	 -3.041118 	 3.632392 	 -7.153495 
H 	 -5.881883 	 -0.815449 	 -2.962680 
H 	 -5.390155 	 -1.407943 	 -4.325884 
H 	 -4.949685 	 -0.914836 	 5.853348 
H 	 -4.656951 	 -1.970597 	 4.754132 
H 	 -3.932269 	 -0.210358 	 2.676608 
H 	 -4.575769 	 1.226289 	 3.085606 
H 	 5.655063 	 0.395300 	 5.401216 
H 	 6.161615 	 -0.893151 	 4.908566 
H 	 1.099815 	 -7.193998 	 -5.928638 
H 	 1.860949 	 -5.975255 	 -6.334316 
H 	 4.347684 	 -2.977366 	 3.903743 
H 	 4.862317 	 -3.215715 	 2.483491 
H 	 -0.885532 	 6.061929 	 6.641430 
H 	 -1.377437 	 4.630421 	 7.059883 
H 	 -2.256921 	 -5.255092 	 -5.461202 
H 	 -2.365127 	 -3.937915 	 -4.630516 
H 	 0.147362 	 5.587012 	 -4.674020 
H 	 0.221225 	 5.320872 	 -6.142833 
H 	 7.465125 	 4.749236 	 1.731168 
H 	 -5.983578 	 4.634979 	 2.365587 
H 	 3.985269 	 4.775278 	 -2.129071 
H 	 3.955759 	 5.967269 	 -3.200192 
H 	 -4.270636 	 5.396885 	 6.648438 
H 	 -5.335882 	 4.389126 	 6.596422 
H 	 5.391617 	 -6.486432 	 3.100589 
H 	 6.617104 	 7.503482 	 3.286252 
H 	 -2.253877 	 -3.153277 	 -2.119875 
H 	 -3.457669 	 -2.186709 	 -2.243661 
H 	 -4.807524 	 -6.013698 	 1.302064 
H 	 -3.608620 	 -5.698226 	 0.487152 
H 	 7.040114 	 -7.327610 	 -3.948272 
H 	 7.087729 	 -5.947161 	 -3.335618 
H 	 -1.296542 	 -3.158358 	 3.000263 
O 	 5.209256 	 0.348797 	 -2.020397 
O 	 2.404308 	 0.151396 	 -5.774871 
O 	 0.332581 	 -2.299571 	 -3.003245 
O 	 -2.865536 	 4.263600 	 3.580241 
O 	 -1.398338 	 7.148316 	 5.049046 
O 	 2.173476 	 2.794803 	 -4.179881 
O 	 6.087524 	 2.972821 	 -5.283624 
O 	 7.177864 	 2.817835 	 -2.387076 
O 	 7.148200 	 6.871477 	 -6.895586 
O 	 -4.674585 	 0.713343 	 6.954173 
O 	 2.839652 	 -1.099154 	 -3.210686 
O 	 4.948311 	 -2.869600 	 -4.011071 
O 	 7.618153 	 -0.814651 	 -1.270782 
O 	 -4.154896 	 -3.020973 	 2.467917 
O 	 -2.051959 	 3.302010 	 0.829086 
O 	 -7.227057 	 -2.448263 	 1.384558 
O 	 -3.931634 	 1.368509 	 -0.432185 
O 	 3.887610 	 3.011400 	 -1.952012 
O 	 -3.217596 	 -5.020845 	 4.553134 
O 	 4.605660 	 -5.362923 	 5.901886 
O 	 6.217704 	 3.499854 	 4.533952 
O 	 0.008110 	 4.876789 	 3.061323 
O 	 1.045170 	 -4.178692 	 3.717189 
O 	 -6.987512 	 4.243504 	 -7.389244 
O 	 -0.255183 	 2.905965 	 -1.132953 
O 	 3.111118 	 -5.139122 	 -2.923823 
O 	 5.757358 	 1.253907 	 6.943281 
O 	 -2.204157 	 5.358748 	 -4.928335 
O 	 7.481738 	 6.796897 	 4.550450 
O 	 6.656137 	 5.697591 	 -3.550223 
O 	 -2.404663 	 -6.790568 	 -3.345209 
O 	 2.221346 	 -3.605408 	 -0.422426 
O 	 -6.793267 	 -4.507237 	 3.500719 
O 	 -3.550014 	 4.180287 	 -1.662060 
O 	 5.094581 	 5.357241 	 1.567388 
O 	 2.550234 	 -5.564961 	 1.464564 
O 	 -5.035896 	 4.728683 	 -5.020685 
O 	 -1.364709 	 -6.896626 	 -6.679960 
O 	 2.328124 	 -1.779986 	 5.305131 
O 	 7.446419 	 1.966079 	 0.955122 
O 	 1.854627 	 -6.502477 	 5.978646 
O 	 2.986678 	 2.931216 	 2.554354 
O 	 -6.245458 	 1.923688 	 4.647434 
O 	 -5.310999 	 2.528113 	 -3.123309 
O 	 -0.854594 	 7.110647 	 1.211907 
O 	 -4.068612 	 -1.442974 	 -0.128452 
O 	 0.455261 	 2.220550 	 3.424555 
O 	 7.094990 	 -3.461937 	 -5.834374 
O 	 1.697503 	 6.955142 	 -1.745493 
O 	 -1.670070 	 -4.568864 	 -0.960196 
O 	 -6.937369 	 -6.334058 	 0.473430 
O 	 7.323296 	 -4.279232 	 -1.632748 
O 	 -6.668819 	 0.697577 	 -5.829299 
O 	 -1.673716 	 0.131263 	 -2.180667 
O 	 1.325076 	 -1.597285 	 1.829823 
O 	 -0.962910 	 -4.543412 	 6.613347 
O 	 -4.986044 	 -5.725971 	 -5.487669 
O 	 3.004961 	 1.400104 	 5.191111 
O 	 -2.850921 	 6.739972 	 -0.846164 
O 	 3.675695 	 6.062567 	 -4.908709 
O 	 -1.164148 	 2.623117 	 -4.297885 
O 	 -2.364731 	 1.068300 	 5.380099 
O 	 0.215487 	 -5.313776 	 -3.143646 
O 	 -2.714571 	 -1.916119 	 -7.096353 
O 	 4.762155 	 -2.652101 	 -0.205697 
O 	 -4.600241 	 7.020184 	 4.015116 
O 	 -0.326718 	 5.414675 	 -2.407425 
O 	 3.910574 	 -1.371405 	 -7.355299 
O 	 -5.918222 	 -6.082898 	 6.614791 
O 	 -6.773032 	 5.239616 	 -1.124089 
O 	 -5.250898 	 6.916056 	 -3.407600 
O 	 0.212318 	 1.052495 	 7.132538 
O 	 4.617512 	 -0.311240 	 1.773327 
O 	 -1.128524 	 -2.117426 	 0.260046 
O 	 4.551581 	 -6.180088 	 -0.717461 
O 	 -4.031710 	 6.732553 	 -7.181183 
O 	 1.526474 	 0.655266 	 -1.007904 
O 	 -4.595760 	 5.377861 	 1.419577 
O 	 -4.835952 	 -4.797494 	 -2.633781 
O 	 5.068552 	 6.563292 	 5.873566 
O 	 2.210438 	 5.093349 	 5.973411 
O 	 3.164782 	 -4.042570 	 -6.868261 
O 	 -5.371797 	 -2.191215 	 -6.003260 
O 	 3.520663 	 2.998699 	 -7.118421 
O 	 2.446734 	 6.656935 	 2.915244 
O 	 1.964954 	 4.401831 	 -0.210430 
O 	 -1.090137 	 0.440632 	 1.844787 
O 	 5.446989 	 0.575154 	 -4.766485 
O 	 0.362103 	 -2.611298 	 -6.228188 
O 	 -0.749810 	 -0.202758 	 -4.978152 
O 	 6.827240 	 -2.599456 	 5.912835 
O 	 5.060552 	 -6.200428 	 -5.807957 
O 	 -0.607662 	 -1.035140 	 5.357129 
O 	 -2.336804 	 3.102848 	 -6.754993 
O 	 -5.077986 	 -0.983175 	 -3.488749 
O 	 -4.938998 	 -1.886542 	 5.678857 
O 	 -3.731443 	 0.700453 	 3.042283 
O 	 5.786935 	 -0.072797 	 4.575816 
O 	 1.790245 	 -6.594878 	 -5.588563 
O 	 4.988612 	 -3.538126 	 3.396071 
O 	 -0.701111 	 5.099829 	 6.561916 
O 	 -2.602436 	 -4.324136 	 -5.497074 
O 	 0.770017 	 5.300919 	 -5.359702 
O 	 -6.960345 	 4.567615 	 2.572171 
O 	 4.128628 	 5.732276 	 -2.275586 
O 	 -4.549013 	 4.643608 	 6.057015 
O 	 5.974240 	 -7.063447 	 2.615650 
O 	 -2.797793 	 -2.648164 	 -2.774491 
O 	 -3.856254 	 -5.795200 	 1.427767 
O 	 7.386190 	 -6.435515 	 -4.114587 
O 	 -1.880065 	 -2.342229 	 3.030193 
K 	 -3.629422 	 0.824727 	 -4.990900 
