333
conformation = 49
H 	 -7.534722 	 -7.565139 	 -7.330505 
H 	 5.993211 	 -6.749895 	 7.500915 
H 	 3.892975 	 -7.494845 	 3.892637 
H 	 4.831959 	 -6.997479 	 2.781686 
H 	 1.707302 	 4.993717 	 6.501408 
H 	 1.352783 	 6.160703 	 5.474064 
H 	 -0.657218 	 -4.520493 	 -2.434461 
H 	 -1.842351 	 -3.471878 	 -2.184621 
H 	 0.460528 	 0.505156 	 -1.536648 
H 	 0.885058 	 -0.636594 	 -2.418180 
H 	 3.640714 	 -5.034789 	 4.172241 
H 	 3.456754 	 -3.465722 	 4.011498 
H 	 6.544800 	 -3.820175 	 2.554848 
H 	 7.314433 	 -4.323618 	 3.822966 
H 	 -5.801535 	 -4.930046 	 5.806160 
H 	 -7.093548 	 -4.230075 	 6.264587 
H 	 -7.134159 	 -0.077542 	 0.816794 
H 	 7.269300 	 -1.000095 	 2.021734 
H 	 -3.655183 	 -6.077694 	 0.168437 
H 	 -2.286919 	 -6.854230 	 0.242397 
H 	 4.505553 	 5.596784 	 5.122873 
H 	 3.799786 	 6.762159 	 5.791913 
H 	 6.502952 	 4.558748 	 6.461838 
H 	 5.540328 	 3.741382 	 5.552977 
H 	 -5.409340 	 -7.114632 	 -6.913917 
H 	 -5.443709 	 6.432505 	 -6.478309 
H 	 -1.892698 	 4.757169 	 -3.628805 
H 	 -2.676169 	 3.571249 	 -4.318118 
H 	 -1.307881 	 -4.057977 	 -4.450895 
H 	 -1.010389 	 -4.029117 	 -5.926832 
H 	 -6.405667 	 5.897180 	 -4.201322 
H 	 -5.793990 	 4.475583 	 -4.369785 
H 	 -2.983978 	 7.181192 	 -6.606678 
H 	 -2.977621 	 -6.477951 	 -5.554175 
H 	 4.789984 	 -4.091148 	 -7.069753 
H 	 4.471286 	 -4.694661 	 6.446787 
H 	 -2.488501 	 3.072929 	 -1.653709 
H 	 -2.434735 	 1.695191 	 -0.872012 
H 	 6.617508 	 2.826951 	 -0.552673 
H 	 5.335932 	 2.276583 	 -0.008264 
H 	 6.703936 	 -3.666004 	 -1.719064 
H 	 6.911993 	 -4.736602 	 -0.631389 
H 	 2.069454 	 -2.723385 	 -4.213131 
H 	 1.250161 	 -2.877899 	 -2.884577 
H 	 2.084186 	 2.493389 	 -2.806915 
H 	 2.576726 	 3.860114 	 -2.463390 
H 	 -5.918352 	 -3.718334 	 0.856813 
H 	 -5.985583 	 -2.208921 	 0.750160 
H 	 1.863160 	 -3.718785 	 -5.805307 
H 	 1.714022 	 -3.932387 	 -7.320206 
H 	 4.040112 	 1.241214 	 6.394653 
H 	 4.717940 	 1.182138 	 5.012516 
H 	 6.144491 	 -7.220938 	 -0.632653 
H 	 7.105474 	 -7.044421 	 0.555436 
H 	 -2.044168 	 -2.035997 	 3.589096 
H 	 -0.610957 	 -2.233125 	 3.552567 
H 	 -4.408696 	 -0.734333 	 -2.397128 
H 	 -5.172595 	 0.186618 	 -1.368616 
H 	 -5.811937 	 -1.192335 	 4.290073 
H 	 -6.951676 	 -1.819705 	 5.117219 
H 	 -0.242560 	 1.120167 	 4.700024 
H 	 -0.745555 	 -0.262582 	 4.263909 
H 	 2.326104 	 4.113894 	 -6.423430 
H 	 3.752232 	 3.632596 	 -6.806901 
H 	 -5.538850 	 3.397141 	 -2.138857 
H 	 -4.395513 	 3.059259 	 -3.211637 
H 	 -1.625626 	 -2.481159 	 6.314292 
H 	 -0.944328 	 -3.450039 	 5.396215 
H 	 6.760805 	 -1.525695 	 -6.154024 
H 	 7.197247 	 -0.634549 	 -5.065353 
H 	 3.103610 	 2.377562 	 -5.214347 
H 	 4.430138 	 1.485806 	 -5.186707 
H 	 -4.295433 	 -3.270119 	 2.623873 
H 	 -3.993521 	 -3.501750 	 4.104754 
H 	 0.567859 	 1.762519 	 0.814088 
H 	 -0.180116 	 0.404563 	 0.989111 
H 	 4.744841 	 4.521110 	 -0.616096 
H 	 3.417372 	 5.404627 	 -0.546508 
H 	 -6.135355 	 -4.998734 	 -5.152682 
H 	 -6.119165 	 -5.023952 	 -6.695857 
H 	 3.657711 	 0.336731 	 -0.475252 
H 	 2.637294 	 1.393415 	 -0.480529 
H 	 4.659920 	 -3.029121 	 -3.103406 
H 	 4.679019 	 -4.580556 	 -2.789404 
H 	 -5.135263 	 -4.651610 	 -2.801112 
H 	 -5.670553 	 -6.115982 	 -2.637515 
H 	 -3.777873 	 -5.538821 	 7.061114 
H 	 -3.519019 	 -4.172025 	 6.373941 
H 	 0.230980 	 0.918489 	 -5.642729 
H 	 0.568764 	 0.153602 	 -4.332277 
H 	 -2.819760 	 4.948826 	 7.494477 
H 	 -3.116037 	 4.830162 	 -5.814896 
H 	 1.090583 	 -5.814320 	 -3.644420 
H 	 2.199789 	 -5.671831 	 -2.467471 
H 	 -7.020525 	 3.583124 	 3.099640 
H 	 -5.926518 	 4.504873 	 2.375398 
H 	 2.891540 	 -1.248657 	 -7.218033 
H 	 4.077353 	 -0.854167 	 6.747758 
H 	 -0.088424 	 2.843936 	 -7.014356 
H 	 0.670026 	 1.923207 	 6.935280 
H 	 -5.798782 	 1.081071 	 -6.045242 
H 	 -5.435152 	 -0.447611 	 -6.178631 
H 	 -5.908455 	 4.352986 	 -7.056134 
H 	 -5.022936 	 3.419180 	 7.076519 
H 	 -6.510250 	 -5.534674 	 2.430257 
H 	 -6.634014 	 -6.857028 	 3.248406 
H 	 0.181765 	 -6.944346 	 6.344727 
H 	 -1.006575 	 -6.632133 	 7.305800 
H 	 4.101408 	 6.566840 	 -4.404163 
H 	 3.299102 	 5.826215 	 -3.371369 
H 	 -0.486339 	 3.142115 	 -0.166520 
H 	 0.728510 	 3.600728 	 -1.062086 
H 	 -2.657111 	 2.307929 	 2.755703 
H 	 -4.082143 	 1.863895 	 3.396081 
H 	 3.290122 	 -6.141505 	 -0.618426 
H 	 3.412234 	 -7.379388 	 -1.442388 
H 	 -0.940255 	 -0.039737 	 6.976148 
H 	 -1.104036 	 -0.804889 	 -6.581133 
H 	 5.143287 	 -1.920754 	 2.589445 
H 	 5.330601 	 -0.429707 	 2.935516 
H 	 1.074318 	 -3.981323 	 4.024692 
H 	 0.697380 	 -5.461346 	 3.751342 
H 	 -0.571572 	 -5.793242 	 -1.036298 
H 	 -1.057705 	 -6.928554 	 -1.982422 
H 	 1.146550 	 3.970793 	 4.764232 
H 	 1.822516 	 2.660745 	 4.371787 
H 	 -0.760507 	 6.377461 	 0.660912 
H 	 -1.038328 	 5.021476 	 1.301741 
H 	 7.171925 	 3.955832 	 -5.798915 
H 	 5.777290 	 4.028987 	 -5.402089 
H 	 -1.838884 	 -0.231474 	 -3.506600 
H 	 -1.728422 	 -0.957155 	 -2.091653 
H 	 1.996861 	 -2.002971 	 5.685602 
H 	 0.729801 	 -1.206833 	 5.173865 
H 	 6.632294 	 5.231754 	 1.699028 
H 	 5.126083 	 5.370872 	 1.961971 
H 	 -4.797951 	 1.605879 	 1.183857 
H 	 -5.422129 	 2.325499 	 0.022816 
H 	 -5.257114 	 -2.683912 	 7.113295 
H 	 -3.907279 	 -1.936129 	 7.237435 
H 	 -4.220659 	 -0.461766 	 5.618432 
H 	 -2.838481 	 -0.688543 	 6.359561 
H 	 0.682750 	 -5.453781 	 0.759503 
H 	 1.848897 	 -6.018329 	 1.684870 
H 	 6.822702 	 -7.136729 	 -4.479170 
H 	 6.211708 	 7.154546 	 -5.816152 
H 	 0.030720 	 5.413063 	 -6.353797 
H 	 0.149669 	 5.219143 	 -4.829646 
H 	 5.895192 	 0.522747 	 -7.287281 
H 	 6.291773 	 1.705986 	 -6.375836 
H 	 -3.313671 	 0.042519 	 0.617784 
H 	 -2.340070 	 -0.853672 	 1.404045 
H 	 2.452039 	 6.836803 	 -6.367925 
H 	 2.645416 	 -6.562244 	 -6.679151 
H 	 -2.971014 	 -2.507230 	 -4.987258 
H 	 -3.507920 	 -1.036005 	 -5.162411 
H 	 -2.603602 	 2.995677 	 6.109420 
H 	 -3.043248 	 1.581930 	 5.925967 
H 	 -7.526602 	 -0.487998 	 -1.778550 
H 	 6.038254 	 -1.076741 	 -1.295944 
H 	 3.126170 	 -1.826408 	 -0.326442 
H 	 3.628929 	 -1.283103 	 -1.674267 
H 	 3.588381 	 3.146694 	 1.495717 
H 	 4.436235 	 3.157350 	 2.770397 
H 	 -4.585641 	 6.394576 	 2.158181 
H 	 -3.691440 	 5.131297 	 2.277828 
H 	 4.044802 	 -4.439489 	 1.536365 
H 	 5.048134 	 -3.837898 	 0.543470 
H 	 5.178609 	 -0.089613 	 -3.159091 
H 	 3.703787 	 -0.335337 	 -3.669458 
H 	 4.508818 	 -2.077604 	 -5.372192 
H 	 3.855952 	 -3.440472 	 -5.033896 
H 	 0.092805 	 7.246186 	 -4.713089 
H 	 -0.561228 	 -6.470076 	 -5.283755 
H 	 6.695096 	 6.917253 	 5.058376 
H 	 6.733973 	 6.157596 	 3.688094 
H 	 1.387234 	 5.555357 	 1.397676 
H 	 2.386201 	 4.989735 	 2.422026 
H 	 1.016077 	 6.641293 	 3.479756 
H 	 -0.225114 	 7.045024 	 4.449483 
H 	 -6.660850 	 3.930195 	 0.257901 
H 	 -5.623931 	 4.789012 	 -0.593653 
H 	 5.918162 	 2.106314 	 2.244812 
H 	 6.573700 	 1.885836 	 3.642055 
H 	 1.500411 	 -7.332644 	 -0.502643 
H 	 0.898770 	 6.686577 	 -1.545176 
H 	 -0.764441 	 -4.006111 	 1.891472 
H 	 -1.644696 	 -4.007872 	 0.588255 
H 	 -4.255182 	 6.772689 	 6.146550 
H 	 -4.227509 	 6.198495 	 4.680491 
H 	 -3.569011 	 6.733855 	 -1.192334 
H 	 -3.533689 	 5.517464 	 -2.265190 
H 	 -2.187056 	 -7.510663 	 -3.335364 
H 	 -3.463146 	 -6.470720 	 -3.213926 
H 	 -7.143010 	 7.200665 	 -1.945429 
H 	 -5.674317 	 6.877087 	 -2.190519 
H 	 3.058470 	 0.234282 	 3.602191 
H 	 2.289000 	 0.690635 	 2.369824 
H 	 7.239646 	 4.389880 	 -2.717512 
H 	 5.673051 	 4.198478 	 -2.719960 
H 	 0.670086 	 -1.489632 	 -0.309189 
H 	 0.328032 	 -2.967824 	 -0.010555 
H 	 -0.431725 	 2.543598 	 2.478966 
H 	 -0.909123 	 3.527448 	 3.661683 
H 	 1.855750 	 -1.888640 	 3.561030 
H 	 2.273159 	 -2.325767 	 2.071491 
H 	 -6.853262 	 -3.099687 	 -4.363571 
H 	 -5.334959 	 -2.778385 	 -4.240884 
H 	 5.448423 	 -2.631600 	 6.226648 
H 	 5.707464 	 -1.786686 	 4.883368 
H 	 -2.466674 	 -2.048963 	 -0.196095 
H 	 -3.606811 	 -2.874916 	 -0.410981 
H 	 7.184165 	 2.160929 	 -4.016238 
H 	 -6.387475 	 1.521038 	 -3.530822 
H 	 -0.742182 	 4.899285 	 6.174068 
H 	 -2.181951 	 5.411824 	 5.681976 
H 	 -3.659963 	 1.856070 	 -5.946964 
H 	 -2.226112 	 1.743527 	 -6.306202 
H 	 -7.037960 	 0.653270 	 5.448511 
H 	 -6.970398 	 2.152471 	 5.840433 
H 	 -0.368497 	 5.213971 	 -2.751554 
O 	 6.401305 	 7.280359 	 7.459035 
O 	 4.026916 	 -6.748916 	 3.257576 
O 	 0.996386 	 5.511667 	 6.112041 
O 	 -0.925043 	 -3.570399 	 -2.523080 
O 	 1.253325 	 0.023476 	 -1.820899 
O 	 3.476278 	 -4.192528 	 4.662317 
O 	 -7.467392 	 -3.875044 	 2.970810 
O 	 -6.760024 	 -4.902092 	 5.678470 
O 	 -6.851284 	 -0.713002 	 1.477965 
O 	 -3.176621 	 -6.835353 	 0.617918 
O 	 3.685697 	 6.142138 	 5.046002 
O 	 5.940451 	 4.614158 	 5.676029 
O 	 -5.782989 	 6.945769 	 -7.227630 
O 	 -2.642343 	 4.092026 	 -3.495950 
O 	 -1.671326 	 -4.378670 	 -5.303284 
O 	 -6.017419 	 5.275859 	 -4.879037 
O 	 -2.861175 	 -6.722977 	 -6.497859 
O 	 5.230200 	 -4.485729 	 7.045926 
O 	 -2.383823 	 2.657033 	 -0.762706 
O 	 6.164174 	 2.728593 	 0.317388 
O 	 6.562114 	 -3.837135 	 -0.765410 
O 	 1.434725 	 -2.279530 	 -3.625807 
O 	 1.751096 	 3.402771 	 -2.705898 
O 	 -5.320688 	 -2.972358 	 0.695848 
O 	 1.412519 	 -4.277291 	 -6.437065 
O 	 4.693172 	 1.669794 	 5.831851 
O 	 7.001593 	 -6.840701 	 -0.424042 
O 	 -1.264757 	 -1.702817 	 3.054522 
O 	 -5.244998 	 -0.591683 	 -1.948776 
O 	 -6.104676 	 -1.327149 	 5.222424 
O 	 -0.252401 	 0.182098 	 4.998532 
O 	 2.808561 	 3.407263 	 -6.882938 
O 	 -5.376483 	 3.148346 	 -3.058503 
O 	 -1.843328 	 -3.075128 	 5.560685 
O 	 -7.481399 	 -1.506415 	 -5.449111 
O 	 3.599308 	 1.741480 	 -4.669868 
O 	 -3.729329 	 -3.799989 	 3.204186 
O 	 0.719000 	 0.807761 	 1.037333 
O 	 4.157079 	 5.129374 	 -1.132015 
O 	 -6.617893 	 -5.343633 	 -5.937432 
O 	 3.605586 	 1.288564 	 -0.634989 
O 	 4.576572 	 -3.914384 	 -3.478272 
O 	 -4.994889 	 -5.505055 	 -2.324886 
O 	 -3.889241 	 -5.064796 	 6.200902 
O 	 0.275440 	 -0.004449 	 -5.249347 
O 	 -3.208746 	 5.363154 	 -6.616879 
O 	 1.404514 	 -5.232223 	 -2.888027 
O 	 -6.760847 	 3.945670 	 2.243927 
O 	 3.135321 	 -0.686251 	 6.906404 
O 	 -0.031426 	 1.921017 	 -7.266187 
O 	 -5.124725 	 0.480077 	 -6.330043 
O 	 -5.971373 	 3.700324 	 7.127055 
O 	 -6.124667 	 -6.421087 	 2.513530 
O 	 -0.776305 	 -7.050261 	 6.434305 
O 	 3.219850 	 6.116917 	 -4.291479 
O 	 0.467691 	 3.378686 	 -0.143197 
O 	 -3.627891 	 2.139574 	 2.584609 
O 	 3.714965 	 -6.438323 	 -1.459952 
O 	 -1.466478 	 -0.762901 	 7.395964 
O 	 5.781492 	 -1.295935 	 2.993691 
O 	 0.303175 	 -4.582172 	 3.948872 
O 	 -0.827205 	 -6.729529 	 -1.065149 
O 	 1.163844 	 3.008178 	 5.014999 
O 	 -1.492577 	 5.795418 	 0.938626 
O 	 6.289950 	 3.742161 	 -6.202290 
O 	 -1.628928 	 -0.106404 	 -2.565335 
O 	 1.208840 	 -2.068287 	 5.129720 
O 	 5.926380 	 5.886662 	 1.719310 
O 	 -5.356533 	 1.402278 	 0.379562 
O 	 -4.666031 	 -2.227615 	 -7.141570 
O 	 -3.285106 	 -0.745321 	 5.469272 
O 	 1.650204 	 -5.686660 	 0.832577 
O 	 6.084400 	 7.173760 	 -4.836397 
O 	 0.365725 	 4.774116 	 -5.697549 
O 	 6.094700 	 0.749321 	 -6.371604 
O 	 -2.413340 	 -0.321736 	 0.591151 
O 	 2.829228 	 -7.466486 	 -7.042781 
O 	 -3.131047 	 -1.673150 	 -4.546471 
O 	 -3.419447 	 2.453795 	 6.161535 
O 	 6.518407 	 -0.233363 	 -1.319336 
O 	 3.932312 	 -1.746673 	 -0.874660 
O 	 3.893224 	 3.757327 	 2.208616 
O 	 -4.404488 	 5.638074 	 2.757842 
O 	 4.770167 	 -3.791895 	 1.509407 
O 	 4.563408 	 -0.771309 	 -3.536473 
O 	 3.933251 	 -2.768095 	 -5.735022 
O 	 0.307052 	 -6.903784 	 -5.266262 
O 	 7.105290 	 6.906349 	 4.162158 
O 	 1.508772 	 5.406019 	 2.354842 
O 	 0.491908 	 -7.520893 	 3.873891 
O 	 -6.337709 	 4.116999 	 -0.640779 
O 	 5.767055 	 1.664183 	 3.124141 
O 	 1.666987 	 6.642750 	 -0.934018 
O 	 -0.910755 	 -4.498029 	 1.075497 
O 	 -3.666122 	 6.552444 	 5.400439 
O 	 -4.083172 	 6.195563 	 -1.809788 
O 	 -2.589139 	 -6.668566 	 -3.674627 
O 	 -6.540885 	 7.015466 	 -2.701832 
O 	 2.724052 	 1.043710 	 3.178780 
O 	 6.511072 	 3.778472 	 -2.948591 
O 	 1.064526 	 -2.351054 	 -0.068787 
O 	 -1.152193 	 3.101066 	 2.821301 
O 	 2.627956 	 -2.021159 	 2.947676 
O 	 -5.991184 	 -3.482370 	 -4.116859 
O 	 5.862876 	 -1.821158 	 5.841948 
O 	 -2.643515 	 -2.977979 	 -0.490047 
O 	 -7.151261 	 1.385153 	 -4.152419 
O 	 -1.584932 	 4.650233 	 5.755957 
O 	 -2.769747 	 2.208907 	 -5.673114 
O 	 -7.124591 	 1.563531 	 5.102571 
O 	 -0.918180 	 5.758982 	 -3.316357 
K 	 -2.611636 	 -6.025878 	 3.531769 
