333
conformation = 36
H 	 -7.603463 	 -7.304148 	 -7.689539 
H 	 6.312689 	 -6.077630 	 6.970391 
H 	 3.973590 	 -7.141382 	 3.497381 
H 	 4.726540 	 -6.798847 	 2.317490 
H 	 2.016150 	 5.089481 	 6.974340 
H 	 2.637019 	 5.869246 	 5.767124 
H 	 0.012772 	 -3.540269 	 -2.333016 
H 	 -1.523408 	 -3.194333 	 -2.173825 
H 	 -0.082267 	 0.185917 	 -2.311125 
H 	 1.362380 	 -0.451699 	 -2.284674 
H 	 3.927237 	 -4.846142 	 3.890218 
H 	 3.765936 	 -3.319716 	 3.902963 
H 	 7.087237 	 -3.364765 	 2.672455 
H 	 -7.097675 	 -4.041184 	 3.847153 
H 	 -5.758815 	 -4.168329 	 5.863232 
H 	 -7.238434 	 -3.700707 	 6.103341 
H 	 -5.863717 	 0.522025 	 1.427055 
H 	 -6.873396 	 -0.270817 	 0.639330 
H 	 -3.656710 	 -5.697439 	 0.326574 
H 	 -2.255790 	 -6.148615 	 0.144203 
H 	 5.009029 	 5.820208 	 5.413424 
H 	 4.274471 	 7.127172 	 6.052616 
H 	 7.151850 	 4.329939 	 5.743652 
H 	 5.868169 	 3.729582 	 5.064596 
H 	 -5.092046 	 -6.666868 	 -7.071476 
H 	 -5.047490 	 6.734580 	 -6.808849 
H 	 -1.597949 	 5.288294 	 -3.599260 
H 	 -2.254386 	 4.226056 	 -4.530425 
H 	 -0.983769 	 -4.137385 	 -4.427644 
H 	 -0.124011 	 -3.879350 	 -5.724165 
H 	 -6.222630 	 6.399346 	 -4.201555 
H 	 -5.396083 	 5.092222 	 -4.501715 
H 	 -2.221598 	 -6.851812 	 -6.296056 
H 	 -2.062022 	 -5.262449 	 -6.150816 
H 	 5.058243 	 -3.811138 	 -7.310963 
H 	 4.847704 	 -4.277732 	 6.145574 
H 	 -1.630728 	 3.516220 	 -2.263502 
H 	 -1.774012 	 2.101096 	 -1.946208 
H 	 6.972762 	 3.414726 	 -0.627680 
H 	 5.618225 	 2.610963 	 -0.637673 
H 	 -7.148840 	 -3.504433 	 -1.348129 
H 	 6.335129 	 -4.074856 	 -1.255609 
H 	 2.977529 	 -1.373243 	 -3.721993 
H 	 1.960946 	 -2.658859 	 -3.796344 
H 	 2.797475 	 3.120974 	 -3.379182 
H 	 3.221297 	 4.180926 	 -2.306688 
H 	 -5.671907 	 -2.819438 	 1.411050 
H 	 -4.904086 	 -1.689915 	 0.786575 
H 	 2.427063 	 -3.440247 	 -6.650140 
H 	 1.558023 	 -3.704815 	 7.022437 
H 	 3.974385 	 2.348876 	 5.836595 
H 	 4.954761 	 1.706507 	 4.964363 
H 	 6.509684 	 -6.516239 	 0.178445 
H 	 -7.222142 	 -5.708027 	 0.700364 
H 	 -1.605940 	 -1.844330 	 3.584855 
H 	 -0.045893 	 -1.913883 	 3.454766 
H 	 -4.766719 	 -0.832581 	 -2.571538 
H 	 -4.594284 	 0.492231 	 -1.730085 
H 	 -6.267107 	 -1.451736 	 3.962584 
H 	 -6.919877 	 -1.159614 	 5.316407 
H 	 0.356954 	 1.632284 	 4.580496 
H 	 -0.314651 	 0.215253 	 4.291641 
H 	 2.690976 	 4.426084 	 -6.105393 
H 	 4.121630 	 4.316557 	 -6.522464 
H 	 -5.032322 	 3.646407 	 -2.256082 
H 	 -4.005612 	 3.689378 	 -3.311065 
H 	 -1.030356 	 -1.809974 	 6.841277 
H 	 -0.442068 	 -2.923573 	 5.945469 
H 	 7.035267 	 -1.145103 	 -6.015283 
H 	 7.131159 	 -0.347049 	 -4.724919 
H 	 3.298784 	 1.885927 	 -5.312547 
H 	 4.962493 	 1.989841 	 -5.533561 
H 	 -3.805918 	 -2.916071 	 2.416921 
H 	 -3.858121 	 -2.214064 	 3.751449 
H 	 0.824033 	 1.833878 	 0.885713 
H 	 -0.102311 	 0.618500 	 1.060801 
H 	 4.769943 	 5.260564 	 -0.636819 
H 	 3.337985 	 5.929232 	 -0.913137 
H 	 -5.952081 	 -4.389073 	 -5.539780 
H 	 -6.437379 	 -4.975033 	 -6.917785 
H 	 3.588901 	 0.636385 	 -0.543997 
H 	 2.735995 	 1.618809 	 -1.399982 
H 	 5.999036 	 -3.699170 	 -3.164030 
H 	 4.525186 	 -4.264056 	 -3.231579 
H 	 -4.891221 	 -4.338121 	 -2.661235 
H 	 -5.051558 	 -5.881396 	 -2.461377 
H 	 -3.252718 	 -5.271851 	 6.734890 
H 	 -2.637708 	 -4.039928 	 6.041994 
H 	 0.353078 	 0.675380 	 -4.308814 
H 	 0.925713 	 -0.676357 	 -4.724572 
H 	 -1.455833 	 5.523624 	 -6.762090 
H 	 -2.703749 	 5.573991 	 -5.776466 
H 	 1.127228 	 -5.467389 	 -3.663011 
H 	 1.887896 	 -5.136325 	 -2.431090 
H 	 -7.043472 	 3.769843 	 2.467721 
H 	 -5.656253 	 3.982123 	 3.085741 
H 	 3.083735 	 0.231819 	 -7.624031 
H 	 4.301199 	 -0.325587 	 6.322290 
H 	 0.112128 	 3.899967 	 -6.919385 
H 	 0.188128 	 2.866994 	 6.867746 
H 	 -5.385885 	 1.431362 	 -5.450517 
H 	 -4.778719 	 0.288373 	 -6.340561 
H 	 -5.130448 	 3.993371 	 6.389479 
H 	 -5.437499 	 3.306364 	 -7.159087 
H 	 -5.154915 	 -5.347830 	 2.479385 
H 	 -5.826450 	 -6.551972 	 3.060437 
H 	 0.119173 	 -7.195513 	 7.035873 
H 	 -1.273705 	 -6.512405 	 6.801730 
H 	 4.521575 	 6.668397 	 -4.325960 
H 	 3.208300 	 6.239413 	 -3.649478 
H 	 -0.195106 	 3.449726 	 -0.833084 
H 	 1.364123 	 3.645253 	 -0.952190 
H 	 -2.387644 	 2.718154 	 2.836385 
H 	 -3.682206 	 2.044282 	 3.436898 
H 	 3.447702 	 -5.912397 	 -0.721956 
H 	 4.440171 	 -6.941124 	 -1.358138 
H 	 -0.642112 	 0.468341 	 6.968812 
H 	 -0.509067 	 0.083697 	 -6.463742 
H 	 4.776563 	 -1.439887 	 2.586770 
H 	 5.727094 	 -0.357711 	 3.042506 
H 	 1.141008 	 -3.505438 	 4.368635 
H 	 0.686895 	 -5.027176 	 4.227531 
H 	 0.055316 	 -5.724869 	 -0.951067 
H 	 -0.827030 	 -6.452964 	 -2.021320 
H 	 1.864584 	 3.820989 	 5.137818 
H 	 2.474615 	 2.661081 	 4.289056 
H 	 -1.123478 	 6.143742 	 0.157281 
H 	 -0.538945 	 5.026559 	 1.040183 
H 	 -7.374137 	 4.649585 	 -6.590489 
H 	 6.659114 	 5.401273 	 -5.521528 
H 	 -2.239558 	 0.169663 	 -3.465803 
H 	 -2.152360 	 -0.207554 	 -1.932424 
H 	 2.359500 	 -1.598751 	 5.831146 
H 	 0.950868 	 -1.262720 	 6.170329 
H 	 6.755019 	 6.098338 	 1.337411 
H 	 5.314435 	 5.693500 	 1.840111 
H 	 -4.319273 	 2.301889 	 1.060232 
H 	 -5.337554 	 2.687741 	 -0.100308 
H 	 -5.111586 	 -1.815793 	 6.748275 
H 	 -4.285503 	 -2.802270 	 -7.368011 
H 	 -4.256690 	 -0.184258 	 5.468035 
H 	 -2.831900 	 -0.588771 	 6.037601 
H 	 1.330160 	 -5.076079 	 1.070306 
H 	 2.492729 	 -6.032189 	 1.482252 
H 	 6.751222 	 -7.198876 	 -4.202590 
H 	 6.067103 	 -7.232629 	 -5.682659 
H 	 1.169188 	 6.118812 	 -5.858108 
H 	 0.036172 	 5.494215 	 -5.117082 
H 	 6.179574 	 1.711944 	 -7.523235 
H 	 7.131060 	 1.658912 	 -6.362438 
H 	 -2.683774 	 0.655910 	 0.819648 
H 	 -2.168404 	 -0.435584 	 1.783990 
H 	 3.425914 	 -7.003252 	 -6.343535 
H 	 2.750931 	 -5.947518 	 -7.122726 
H 	 -2.182573 	 -2.439961 	 -4.791722 
H 	 -3.025861 	 -1.391281 	 -5.579497 
H 	 -2.371487 	 3.218410 	 6.273222 
H 	 -2.639233 	 1.766624 	 5.899725 
H 	 -7.072155 	 -0.398836 	 -1.599825 
H 	 6.609765 	 -1.311576 	 -1.335032 
H 	 3.068165 	 -1.687670 	 -0.826402 
H 	 4.353268 	 -1.907427 	 -1.505223 
H 	 4.342473 	 3.690938 	 1.162606 
H 	 5.002132 	 3.375351 	 2.512361 
H 	 -4.119880 	 6.555573 	 2.232460 
H 	 -2.903945 	 5.653412 	 2.168805 
H 	 4.611364 	 -4.256978 	 1.327805 
H 	 4.873081 	 -2.828735 	 0.783495 
H 	 5.087624 	 -1.020390 	 -3.475151 
H 	 4.530302 	 0.356479 	 -4.058683 
H 	 3.509305 	 -1.492977 	 -6.017360 
H 	 4.294636 	 -2.501484 	 -5.224640 
H 	 0.063477 	 7.487748 	 -4.622761 
H 	 0.352562 	 -6.162821 	 -5.631402 
H 	 -7.492968 	 -7.172003 	 4.681400 
H 	 6.780299 	 6.922310 	 3.501142 
H 	 1.379847 	 5.057943 	 1.552703 
H 	 2.696463 	 4.841804 	 2.257295 
H 	 1.182319 	 7.114820 	 3.308705 
H 	 1.250611 	 -6.880237 	 4.601398 
H 	 -5.921644 	 4.790281 	 0.576815 
H 	 -5.028377 	 5.258351 	 -0.655932 
H 	 6.654796 	 1.941302 	 1.906524 
H 	 7.084358 	 1.784660 	 3.458826 
H 	 1.331728 	 7.535454 	 -0.568392 
H 	 1.309037 	 6.905959 	 -2.007805 
H 	 -0.766268 	 -3.583129 	 1.855560 
H 	 -1.495440 	 -3.663886 	 0.480961 
H 	 -4.046528 	 7.197138 	 6.036887 
H 	 -3.603676 	 6.578955 	 4.576638 
H 	 -3.535261 	 7.013427 	 -0.769160 
H 	 -2.969557 	 5.860716 	 -1.743509 
H 	 -1.942871 	 -7.170995 	 -3.378863 
H 	 -2.856528 	 -5.942448 	 -2.923775 
H 	 -6.842624 	 -6.830513 	 -1.695940 
H 	 -6.226082 	 6.670626 	 -1.873259 
H 	 3.078477 	 0.392063 	 2.973566 
H 	 3.053973 	 1.812699 	 2.414095 
H 	 6.433838 	 5.352666 	 -2.468301 
H 	 5.301071 	 4.370031 	 -2.952635 
H 	 0.865478 	 -1.301821 	 0.040906 
H 	 0.703248 	 -2.822039 	 0.267535 
H 	 0.362797 	 3.533523 	 3.519119 
H 	 -0.986958 	 4.179470 	 3.927895 
H 	 2.084878 	 -1.331593 	 3.299234 
H 	 2.280586 	 -1.674632 	 1.764174 
H 	 -6.467145 	 -2.347869 	 -4.322276 
H 	 -4.888236 	 -2.493286 	 -4.359986 
H 	 5.708087 	 -2.225065 	 6.250363 
H 	 5.790049 	 -1.391898 	 4.900381 
H 	 -2.521562 	 -1.661291 	 -0.015545 
H 	 -3.470062 	 -2.638662 	 -0.653043 
H 	 -6.927247 	 2.270576 	 -3.849159 
H 	 -6.422064 	 1.024069 	 -3.176691 
H 	 -0.305203 	 5.524562 	 5.745991 
H 	 -1.873965 	 5.868695 	 5.681061 
H 	 -3.196192 	 2.158959 	 -5.870069 
H 	 -1.666784 	 2.264675 	 -6.318050 
H 	 -6.160085 	 1.141880 	 4.583190 
H 	 -6.331853 	 2.225061 	 5.645814 
H 	 -0.005466 	 5.621134 	 -2.991927 
O 	 6.453864 	 -7.020278 	 6.808077 
O 	 4.101206 	 -6.357240 	 2.915216 
O 	 1.763361 	 5.551377 	 6.128214 
O 	 -0.752462 	 -3.075894 	 -2.755747 
O 	 0.855269 	 0.331210 	 -2.032617 
O 	 3.987853 	 -4.055946 	 4.466486 
O 	 -6.916248 	 -3.629203 	 2.977527 
O 	 -6.621816 	 -4.433010 	 6.158859 
O 	 -6.415878 	 -0.271085 	 1.518927 
O 	 -3.045066 	 -6.389950 	 0.658622 
O 	 4.260834 	 6.483081 	 5.306320 
O 	 6.437412 	 4.532366 	 5.131062 
O 	 -5.256120 	 7.384027 	 -7.495771 
O 	 -2.423551 	 4.659663 	 -3.676320 
O 	 -1.010388 	 -3.858641 	 -5.353353 
O 	 -5.895015 	 5.802894 	 -4.909840 
O 	 -2.561290 	 -5.990414 	 -6.634624 
O 	 5.545462 	 -4.125031 	 6.808699 
O 	 -1.705420 	 2.942286 	 -1.455263 
O 	 6.353215 	 2.898342 	 -0.058229 
O 	 6.818633 	 -3.286671 	 -1.539731 
O 	 2.037882 	 -1.697907 	 -3.621498 
O 	 2.460059 	 3.727640 	 -2.716791 
O 	 -4.832748 	 -2.619936 	 0.951144 
O 	 1.694277 	 -4.006973 	 -6.963025 
O 	 4.902510 	 2.400419 	 5.636872 
O 	 7.186726 	 -5.870376 	 -0.130865 
O 	 -0.818580 	 -1.353131 	 3.211009 
O 	 -5.152021 	 -0.312937 	 -1.857010 
O 	 -6.090396 	 -0.958178 	 4.811906 
O 	 -0.154354 	 0.866586 	 4.988111 
O 	 3.231616 	 4.252781 	 -6.884550 
O 	 -4.775002 	 3.143080 	 -3.034659 
O 	 -1.291661 	 -2.584008 	 6.281637 
O 	 7.181502 	 -1.257054 	 -5.059011 
O 	 4.175860 	 2.046583 	 -4.903985 
O 	 -3.316379 	 -2.846662 	 3.245678 
O 	 0.744390 	 1.003002 	 1.412722 
O 	 4.182094 	 5.593703 	 -1.334091 
O 	 -5.867714 	 -5.149798 	 -6.149601 
O 	 3.523003 	 1.560764 	 -0.826278 
O 	 5.136335 	 -3.582391 	 -3.558591 
O 	 -4.531740 	 -5.115049 	 -2.204049 
O 	 -3.266698 	 -4.797362 	 5.868412 
O 	 0.511067 	 0.142411 	 -5.118588 
O 	 -2.328776 	 5.922975 	 -6.606715 
O 	 1.606890 	 -4.693633 	 -3.267754 
O 	 -6.153288 	 4.082652 	 2.236267 
O 	 3.328287 	 -0.243590 	 6.428706 
O 	 0.016259 	 2.953390 	 -7.095540 
O 	 -5.026203 	 1.240957 	 -6.318591 
O 	 -5.874683 	 3.650883 	 6.930678 
O 	 -5.192154 	 -6.297149 	 2.362659 
O 	 -0.423126 	 -6.727284 	 6.342773 
O 	 3.595475 	 6.405603 	 -4.514419 
O 	 0.622947 	 3.746896 	 -0.330224 
O 	 -3.306166 	 2.481814 	 2.657884 
O 	 4.261384 	 -5.974481 	 -1.260983 
O 	 -0.985953 	 -0.217410 	 -7.305317 
O 	 5.568471 	 -1.322843 	 3.145923 
O 	 0.393612 	 -4.123542 	 4.430748 
O 	 -0.602301 	 -6.420043 	 -1.075319 
O 	 1.658348 	 2.907056 	 4.781024 
O 	 -0.999486 	 5.879382 	 1.081177 
O 	 6.606131 	 4.718475 	 -6.238434 
O 	 -1.839423 	 0.414988 	 -2.603553 
O 	 1.444745 	 -1.880109 	 5.583800 
O 	 5.888407 	 6.440310 	 1.541384 
O 	 -4.737380 	 1.975111 	 0.214715 
O 	 -4.636549 	 -1.885808 	 -7.282614 
O 	 -3.321600 	 -0.166346 	 5.282953 
O 	 2.005303 	 -5.685318 	 0.730062 
O 	 5.998952 	 7.341080 	 -4.737938 
O 	 0.546534 	 5.385573 	 -5.987873 
O 	 6.237745 	 1.388483 	 -6.617654 
O 	 -2.230222 	 -0.215232 	 0.847057 
O 	 3.080120 	 -6.873630 	 -7.251426 
O 	 -2.802219 	 -1.701570 	 -4.682421 
O 	 -3.105917 	 2.595222 	 6.063628 
O 	 6.930658 	 -0.362018 	 -1.250928 
O 	 4.015622 	 -1.620486 	 -0.621160 
O 	 4.381780 	 4.022667 	 2.078323 
O 	 -3.774574 	 5.718029 	 2.637473 
O 	 5.298219 	 -3.572134 	 1.282574 
O 	 4.299819 	 -0.562998 	 -3.860482 
O 	 3.823699 	 -2.412387 	 -6.095866 
O 	 0.762652 	 -6.753391 	 -5.006477 
O 	 -7.552235 	 -7.185538 	 3.712902 
O 	 1.910831 	 5.396279 	 2.267925 
O 	 0.943378 	 -6.910359 	 3.679813 
O 	 -5.912930 	 4.856035 	 -0.420377 
O 	 6.398886 	 2.145220 	 2.840656 
O 	 1.796025 	 6.837422 	 -1.136484 
O 	 -0.740490 	 -4.058316 	 0.998732 
O 	 -3.304024 	 6.974581 	 5.417456 
O 	 -3.686956 	 6.515386 	 -1.577308 
O 	 -2.243748 	 -6.297678 	 -3.669158 
O 	 -6.497840 	 7.495632 	 -2.391469 
O 	 3.080244 	 1.311362 	 3.258588 
O 	 6.229841 	 4.437813 	 -2.666689 
O 	 1.382262 	 -2.106873 	 0.138931 
O 	 -0.568925 	 3.572596 	 3.255182 
O 	 2.782295 	 -1.516070 	 2.618785 
O 	 -5.683288 	 -2.730910 	 -3.842013 
O 	 6.050553 	 -1.371753 	 5.875255 
O 	 -2.543193 	 -2.555710 	 -0.464623 
O 	 -6.876186 	 1.288008 	 -4.011564 
O 	 -1.190311 	 5.142256 	 5.588808 
O 	 -2.315742 	 2.434672 	 -5.592659 
O 	 -6.653271 	 1.937642 	 4.786920 
O 	 -0.433872 	 6.232081 	 -3.582704 
K 	 -2.068862 	 -5.798638 	 3.464744 
