333
conformation = 47
H 	 5.479239 	 3.789737 	 -0.858303 
H 	 4.186777 	 4.485513 	 -0.931251 
H 	 1.946857 	 3.670172 	 -4.487818 
H 	 3.039229 	 4.120723 	 -5.446617 
H 	 -0.023085 	 1.394740 	 -1.701231 
H 	 -0.276333 	 2.365025 	 -2.736057 
H 	 -2.365034 	 6.790198 	 4.306955 
H 	 -3.714529 	 -7.353919 	 4.151775 
H 	 -1.475227 	 -3.189892 	 4.922241 
H 	 -0.985137 	 -4.377320 	 4.079402 
H 	 1.684384 	 6.201950 	 -4.279417 
H 	 1.722894 	 -7.174114 	 -4.362794 
H 	 4.701995 	 -7.448481 	 -5.764001 
H 	 5.456554 	 7.151517 	 -4.437344 
H 	 7.230526 	 6.493712 	 -2.613841 
H 	 5.899165 	 6.977779 	 -2.010875 
H 	 6.086958 	 -3.874800 	 7.240989 
H 	 5.316870 	 -4.497294 	 -6.521524 
H 	 -5.500116 	 5.081275 	 6.654192 
H 	 -4.165677 	 4.332465 	 6.721491 
H 	 2.613484 	 1.776640 	 -3.366599 
H 	 2.098235 	 2.796573 	 -2.384745 
H 	 4.543829 	 1.015370 	 -1.905445 
H 	 3.936264 	 -0.135482 	 -2.639194 
H 	 -7.480034 	 4.124722 	 -0.304375 
H 	 7.347176 	 2.632991 	 0.010117 
H 	 -3.700924 	 1.305790 	 3.074274 
H 	 -4.438267 	 -0.115123 	 2.126253 
H 	 -3.162881 	 6.881425 	 2.189039 
H 	 -2.670990 	 6.810431 	 0.774032 
H 	 6.598948 	 2.166664 	 2.427630 
H 	 7.237996 	 0.773410 	 2.147054 
H 	 -4.671316 	 3.502915 	 0.144135 
H 	 -4.625628 	 4.726399 	 1.024912 
H 	 2.879606 	 7.088276 	 -0.561772 
H 	 2.742605 	 6.585446 	 -2.060391 
H 	 -4.149816 	 -0.464513 	 4.917375 
H 	 -4.089127 	 -1.912570 	 5.193444 
H 	 4.854790 	 -0.749902 	 6.070394 
H 	 3.745601 	 -1.723752 	 6.604774 
H 	 4.914439 	 7.392448 	 4.756023 
H 	 5.038114 	 6.500749 	 5.980314 
H 	 0.478873 	 -6.282393 	 2.672687 
H 	 -0.467609 	 -6.476981 	 3.752270 
H 	 0.084660 	 -1.253833 	 3.732830 
H 	 0.758521 	 -0.000498 	 4.324586 
H 	 -7.539995 	 -7.491869 	 -7.466301 
H 	 7.031128 	 -5.956715 	 7.229499 
H 	 0.162051 	 -7.372295 	 0.617655 
H 	 -0.319639 	 7.364307 	 -0.796789 
H 	 2.184483 	 -2.293749 	 -2.019526 
H 	 2.785144 	 -2.412778 	 -3.406387 
H 	 4.233867 	 4.174395 	 6.077438 
H 	 5.398921 	 4.377259 	 7.093658 
H 	 -3.889738 	 -5.718795 	 -4.709783 
H 	 -2.319782 	 -5.995379 	 -4.944695 
H 	 -6.206318 	 -4.430174 	 4.357986 
H 	 -7.039685 	 -3.581398 	 5.251995 
H 	 7.230791 	 -4.835283 	 -4.115408 
H 	 6.041042 	 -5.406338 	 -3.294854 
H 	 -1.866928 	 -2.540008 	 -3.462376 
H 	 -2.511068 	 -3.853128 	 -4.160098 
H 	 0.470094 	 0.450623 	 0.103832 
H 	 1.870253 	 0.112076 	 -0.432110 
H 	 -7.416831 	 -0.413804 	 4.401428 
H 	 -6.191451 	 -0.420925 	 3.483066 
H 	 -3.350863 	 -6.085697 	 -2.001229 
H 	 -2.846266 	 -7.286287 	 -2.916683 
H 	 4.940085 	 -5.266345 	 0.389201 
H 	 5.294134 	 -4.376997 	 1.583144 
H 	 1.392381 	 -1.422087 	 1.197569 
H 	 2.663254 	 -2.256770 	 1.426081 
H 	 -6.330400 	 -7.103028 	 -5.627592 
H 	 -5.677274 	 -7.265118 	 -4.205545 
H 	 -1.155247 	 -2.172778 	 6.998864 
H 	 -2.051767 	 -3.257015 	 -7.132848 
H 	 2.854031 	 0.853336 	 5.924058 
H 	 1.630198 	 1.763216 	 6.052158 
H 	 6.959293 	 6.274423 	 1.309824 
H 	 7.002536 	 6.163397 	 -0.189569 
H 	 1.770191 	 -3.433307 	 5.890006 
H 	 0.730434 	 -2.239532 	 5.922406 
H 	 3.103739 	 -6.817668 	 3.449724 
H 	 2.956465 	 6.602309 	 3.588647 
H 	 -6.873148 	 6.536007 	 3.775802 
H 	 7.272307 	 5.244447 	 3.875815 
H 	 -5.519994 	 5.442792 	 -1.466008 
H 	 -5.417309 	 6.949448 	 -1.758467 
H 	 -1.662223 	 -2.787906 	 1.045257 
H 	 -1.253500 	 -3.776053 	 2.247267 
H 	 -4.459140 	 1.396530 	 -0.843416 
H 	 -4.780792 	 1.040744 	 0.569927 
H 	 -0.716914 	 5.453990 	 2.823736 
H 	 0.366142 	 5.590030 	 3.893873 
H 	 6.111824 	 -0.233186 	 -5.326246 
H 	 7.254946 	 0.516399 	 -5.886871 
H 	 1.116775 	 -4.752729 	 -0.599556 
H 	 2.127424 	 -4.733022 	 -1.759044 
H 	 -1.986587 	 -0.821480 	 -0.287253 
H 	 -1.471216 	 -1.546008 	 -1.530165 
H 	 7.183861 	 -2.804494 	 0.731939 
H 	 -7.328792 	 -4.104487 	 0.158003 
H 	 7.158947 	 0.772552 	 -0.738697 
H 	 -6.955301 	 -0.453420 	 -1.389137 
H 	 6.479214 	 5.533369 	 -5.802129 
H 	 6.613032 	 4.246826 	 -5.041112 
H 	 -1.624262 	 4.082294 	 -1.929838 
H 	 -2.807255 	 4.282797 	 -0.959104 
H 	 2.296983 	 2.828878 	 2.092836 
H 	 1.350197 	 2.175033 	 3.180739 
H 	 -2.365680 	 -0.382467 	 6.314648 
H 	 -1.175387 	 -0.249553 	 5.386890 
H 	 -4.589890 	 -1.080476 	 -5.490400 
H 	 -5.752599 	 -1.941848 	 -4.936646 
H 	 1.469658 	 5.195975 	 5.874043 
H 	 1.430042 	 3.819892 	 5.056216 
H 	 -2.700327 	 -3.789798 	 -1.419616 
H 	 -2.927156 	 -4.372647 	 0.013345 
H 	 3.161263 	 -5.626407 	 -5.732404 
H 	 3.635269 	 -4.202165 	 -5.247315 
H 	 -0.810103 	 7.170365 	 -4.069997 
H 	 -1.280857 	 5.711916 	 -4.336631 
H 	 -2.496935 	 5.420008 	 5.517421 
H 	 -2.876085 	 4.312907 	 4.550320 
H 	 -0.833163 	 0.197474 	 -3.557786 
H 	 0.169164 	 -1.062130 	 -3.867201 
H 	 -2.578473 	 2.544683 	 7.041822 
H 	 -2.865232 	 1.306621 	 -6.971688 
H 	 5.353080 	 0.416877 	 0.684193 
H 	 3.788587 	 0.523996 	 0.942121 
H 	 -3.748395 	 -4.126302 	 3.093162 
H 	 -3.582613 	 -4.622863 	 4.455487 
H 	 0.134690 	 -5.475607 	 -2.616938 
H 	 -1.183727 	 -5.006766 	 -2.995948 
H 	 4.661269 	 1.493090 	 -6.604271 
H 	 3.182390 	 1.742621 	 -6.623601 
H 	 -6.644287 	 -1.980007 	 -7.138848 
H 	 -7.501077 	 -1.363176 	 6.576221 
H 	 -7.115058 	 -6.252553 	 -1.311272 
H 	 -5.737338 	 -5.671164 	 -1.074419 
H 	 -6.060054 	 -4.198488 	 -2.544549 
H 	 -4.532839 	 -4.389124 	 -2.123650 
H 	 -1.202322 	 5.597892 	 7.367274 
H 	 -0.105294 	 5.168571 	 -6.641535 
H 	 4.895794 	 4.013052 	 2.127464 
H 	 4.320524 	 3.437259 	 0.732383 
H 	 -1.712302 	 1.759362 	 0.155334 
H 	 -1.933154 	 1.408565 	 1.669724 
H 	 4.057950 	 -3.136012 	 -0.736100 
H 	 4.650832 	 -2.054041 	 0.102757 
H 	 -5.197849 	 -3.725196 	 7.215145 
H 	 -4.110594 	 -4.393245 	 -6.835732 
H 	 0.515835 	 3.153121 	 0.086396 
H 	 0.446916 	 4.564831 	 -0.351654 
H 	 -4.751356 	 -6.271188 	 1.480726 
H 	 -5.342003 	 -4.948644 	 1.251859 
H 	 -4.560899 	 -0.639208 	 -2.377737 
H 	 -5.009909 	 -2.199417 	 -2.414567 
H 	 5.598728 	 -4.321587 	 4.981143 
H 	 4.083908 	 -4.747081 	 5.087062 
H 	 1.203220 	 -5.430578 	 6.143200 
H 	 1.914721 	 -5.195632 	 4.783580 
H 	 1.824824 	 -0.553818 	 -6.882221 
H 	 2.631849 	 -0.500678 	 -5.560988 
H 	 -6.380552 	 2.590909 	 -6.226471 
H 	 -5.598970 	 1.247631 	 -6.062663 
H 	 2.246458 	 6.791398 	 -6.794010 
H 	 2.989820 	 -7.052305 	 7.154414 
H 	 3.335698 	 -3.828589 	 3.283291 
H 	 1.972572 	 -3.819408 	 2.651086 
H 	 2.433685 	 -5.709435 	 1.136032 
H 	 2.042861 	 -7.000748 	 1.659928 
H 	 -1.590487 	 3.546040 	 1.895180 
H 	 -2.274365 	 4.792088 	 1.339340 
H 	 4.948776 	 3.530040 	 -3.429597 
H 	 4.595297 	 2.591557 	 -4.618001 
H 	 -0.559525 	 1.527148 	 -6.906883 
H 	 0.549487 	 1.088548 	 -5.929901 
H 	 -0.884576 	 3.010571 	 -5.011278 
H 	 -2.115038 	 3.260296 	 -4.183668 
H 	 6.517884 	 0.246110 	 6.932340 
H 	 -7.509276 	 1.160779 	 6.110822 
H 	 4.448949 	 -1.609093 	 -6.054165 
H 	 4.656945 	 -2.259786 	 -4.639730 
H 	 -0.192410 	 3.930846 	 5.823328 
H 	 -1.017239 	 2.753796 	 5.081180 
H 	 -2.678738 	 7.166439 	 -6.459093 
H 	 -3.554705 	 7.211095 	 7.149515 
H 	 -5.970133 	 3.095511 	 -2.123678 
H 	 -6.154076 	 2.497600 	 -3.523508 
H 	 -5.193830 	 3.053492 	 5.159106 
H 	 -5.436748 	 1.736771 	 4.452355 
H 	 -4.163595 	 3.573597 	 2.950945 
H 	 -5.185280 	 4.604374 	 3.503341 
H 	 5.873168 	 3.520905 	 4.666953 
H 	 -7.514878 	 3.008617 	 4.299927 
H 	 1.118695 	 -3.509262 	 -4.753799 
H 	 0.264364 	 -2.922719 	 -5.855098 
H 	 5.209318 	 0.793646 	 3.941312 
H 	 3.727094 	 0.605643 	 3.689835 
H 	 -0.993081 	 -5.222165 	 6.122462 
H 	 -1.554780 	 -6.679761 	 6.332972 
H 	 -2.160382 	 -1.160149 	 -5.516727 
H 	 -2.714784 	 0.055180 	 -4.830523 
H 	 0.065220 	 -5.689497 	 -4.743448 
H 	 0.361150 	 -5.987013 	 -6.295591 
H 	 6.265378 	 -6.668048 	 2.148440 
H 	 -7.230371 	 -6.413724 	 2.525477 
H 	 3.721978 	 -6.400580 	 -2.159777 
H 	 3.719301 	 -5.617155 	 -3.478697 
H 	 -4.248996 	 -5.746602 	 6.297743 
H 	 -5.399897 	 -6.830203 	 6.136629 
H 	 5.528739 	 -1.513330 	 2.734070 
H 	 6.745686 	 -2.327296 	 3.037785 
H 	 -2.543873 	 1.226262 	 -2.195533 
H 	 -3.766203 	 1.865941 	 -2.766934 
H 	 -5.494372 	 -1.619049 	 0.601547 
H 	 -4.006956 	 -1.796369 	 0.192054 
H 	 6.205900 	 -2.978985 	 -2.856987 
H 	 5.915296 	 -1.451482 	 -2.634803 
H 	 -2.297019 	 1.502070 	 3.760892 
O 	 4.532565 	 3.593867 	 -0.936903 
O 	 2.181413 	 4.399185 	 -5.106828 
O 	 -0.799780 	 1.735350 	 -2.210331 
O 	 -2.760685 	 -7.250287 	 4.010208 
O 	 -0.668059 	 -3.704078 	 4.698838 
O 	 1.677660 	 7.015131 	 -3.706487 
O 	 5.600859 	 7.350566 	 -5.378283 
O 	 6.289703 	 6.300106 	 -2.546398 
O 	 6.236708 	 -4.416722 	 -6.870529 
O 	 -5.021863 	 4.376614 	 7.184128 
O 	 1.919688 	 2.458116 	 -3.289165 
O 	 4.130699 	 0.812312 	 -2.756924 
O 	 -7.535005 	 3.257526 	 -0.739896 
O 	 -4.497383 	 0.359282 	 2.983611 
O 	 -3.502137 	 6.824352 	 1.269715 
O 	 7.031004 	 1.622127 	 1.716322 
O 	 -4.706126 	 4.504130 	 0.055137 
O 	 3.382346 	 6.711551 	 -1.303228 
O 	 -4.165948 	 -1.079259 	 5.715974 
O 	 4.334509 	 -0.980164 	 6.869584 
O 	 4.678100 	 7.371469 	 5.711918 
O 	 -0.398366 	 -5.963580 	 2.926126 
O 	 -0.031146 	 -0.304394 	 3.845108 
O 	 -7.123691 	 -6.632881 	 7.310086 
O 	 -0.357815 	 6.903316 	 0.073912 
O 	 2.895421 	 -1.967060 	 -2.566107 
O 	 5.174857 	 4.452669 	 6.119339 
O 	 -3.080188 	 -5.451938 	 -5.230187 
O 	 -7.132093 	 -4.348264 	 4.613492 
O 	 6.951226 	 -5.051897 	 -3.189055 
O 	 -2.116517 	 -3.494507 	 -3.341086 
O 	 0.974508 	 -0.259262 	 -0.344124 
O 	 -7.187972 	 -0.649321 	 3.486757 
O 	 -3.616738 	 -6.712466 	 -2.707662 
O 	 5.500311 	 -5.221410 	 1.166958 
O 	 1.805768 	 -2.020128 	 1.881962 
O 	 -5.538564 	 -7.421772 	 -5.166664 
O 	 -1.128145 	 -2.929137 	 -7.260230 
O 	 2.297162 	 1.473040 	 5.398348 
O 	 6.493796 	 5.827746 	 0.558419 
O 	 1.666375 	 -2.478147 	 5.873781 
O 	 2.750223 	 7.332199 	 2.985769 
O 	 -6.830526 	 5.676766 	 4.228234 
O 	 -5.664968 	 6.100104 	 -2.190661 
O 	 -1.586542 	 -3.737081 	 1.340011 
O 	 -4.956406 	 1.771530 	 -0.069193 
O 	 -0.505069 	 6.013684 	 3.636330 
O 	 6.354780 	 0.160872 	 -6.174052 
O 	 1.254235 	 -4.389558 	 -1.522665 
O 	 -1.905223 	 -1.712834 	 -0.669177 
O 	 -6.979867 	 -3.171601 	 0.233844 
O 	 7.055776 	 -0.059413 	 -1.220233 
O 	 7.025618 	 4.721733 	 -5.818348 
O 	 -2.604970 	 4.133061 	 -1.910457 
O 	 1.407885 	 2.418825 	 2.256473 
O 	 -1.383132 	 -0.308554 	 6.360142 
O 	 -5.427147 	 -1.546643 	 -5.767943 
O 	 1.872983 	 4.688437 	 5.149594 
O 	 -3.269689 	 -4.409465 	 -0.907922 
O 	 3.906989 	 -5.141971 	 -5.317416 
O 	 -1.599276 	 6.646215 	 -4.331639 
O 	 -2.605762 	 4.456393 	 5.467767 
O 	 -0.613502 	 -0.742467 	 -3.376149 
O 	 -3.291803 	 2.052364 	 -7.404356 
O 	 4.471411 	 0.107727 	 0.364168 
O 	 -3.518760 	 -3.754530 	 3.988195 
O 	 -0.628349 	 -5.815226 	 -3.152685 
O 	 4.040162 	 2.226802 	 -6.637147 
O 	 -7.147312 	 -2.195933 	 6.942943 
O 	 -6.540737 	 -5.913207 	 -0.569742 
O 	 -5.188593 	 -4.488513 	 -2.877762 
O 	 -0.212893 	 5.457683 	 7.352759 
O 	 4.174611 	 3.435787 	 1.709003 
O 	 -1.483129 	 1.108431 	 0.829816 
O 	 4.243477 	 -2.934562 	 0.181457 
O 	 -4.291016 	 -4.079376 	 7.166167 
O 	 1.003544 	 3.756415 	 -0.503263 
O 	 -4.937909 	 -5.466197 	 1.971150 
O 	 -5.245797 	 -1.301736 	 -2.173223 
O 	 4.716127 	 -4.025717 	 5.246861 
O 	 2.068765 	 -5.467458 	 5.724842 
O 	 2.060940 	 0.047950 	 -6.142658 
O 	 -6.181333 	 1.881768 	 -5.574513 
O 	 3.006538 	 7.385154 	 -6.853871 
O 	 2.651280 	 -4.483252 	 2.954619 
O 	 1.999479 	 -6.519453 	 0.795275 
O 	 -1.477658 	 4.265879 	 1.291079 
O 	 5.263252 	 3.239790 	 -4.311020 
O 	 -0.273441 	 1.630155 	 -5.990576 
O 	 -1.310035 	 3.737327 	 -4.477121 
O 	 6.750088 	 0.415688 	 5.989225 
O 	 3.950685 	 -1.989556 	 -5.275203 
O 	 -0.194812 	 2.949031 	 5.578215 
O 	 -2.789254 	 6.719479 	 -7.307490 
O 	 -5.469502 	 2.823918 	 -2.916681 
O 	 -5.900436 	 2.549741 	 4.764030 
O 	 -4.414769 	 4.524141 	 2.859060 
O 	 6.512143 	 3.347877 	 3.936136 
O 	 0.912397 	 -2.655290 	 -5.148374 
O 	 4.569165 	 0.115277 	 3.642793 
O 	 -0.779370 	 -6.098206 	 6.496485 
O 	 -2.980597 	 -0.642130 	 -5.463927 
O 	 0.789219 	 -5.708838 	 -5.429711 
O 	 7.055177 	 -7.163873 	 2.471401 
O 	 4.016710 	 -5.524139 	 -2.541747 
O 	 -4.455217 	 -6.678417 	 6.067086 
O 	 5.946008 	 -2.349524 	 2.438757 
O 	 -3.407740 	 0.989881 	 -2.577388 
O 	 -4.580691 	 -1.510295 	 0.913882 
O 	 5.932603 	 -2.158594 	 -3.310297 
O 	 -2.752736 	 2.122652 	 3.209275 
K 	 -4.393171 	 5.162459 	 -4.812714 
