333
conformation = 19
H 	 -7.529183 	 -7.477771 	 -7.643954 
H 	 6.667735 	 -6.205172 	 6.951695 
H 	 3.653945 	 7.195046 	 3.782389 
H 	 4.481676 	 7.153923 	 2.439291 
H 	 1.538892 	 5.758446 	 6.581683 
H 	 2.708150 	 5.430621 	 5.676558 
H 	 -0.607159 	 -3.637458 	 -2.115787 
H 	 -2.111890 	 -3.671116 	 -2.058980 
H 	 -0.809733 	 0.041453 	 -1.040395 
H 	 0.089399 	 -1.167444 	 -1.506714 
H 	 3.725603 	 -5.507484 	 4.198419 
H 	 3.487574 	 -4.042443 	 3.874923 
H 	 6.861759 	 -3.872940 	 3.420764 
H 	 7.157726 	 -5.379121 	 3.527105 
H 	 -5.414948 	 -4.770073 	 6.218307 
H 	 -6.695595 	 -4.434472 	 5.534048 
H 	 -5.993664 	 0.143429 	 1.267042 
H 	 -7.204356 	 -0.682776 	 1.535134 
H 	 -3.854176 	 -6.231222 	 0.339715 
H 	 -2.417696 	 -6.661813 	 0.242297 
H 	 5.084171 	 5.815357 	 5.499682 
H 	 4.419224 	 6.834358 	 6.448873 
H 	 7.354092 	 4.530378 	 4.430459 
H 	 6.494937 	 3.767115 	 5.402254 
H 	 -5.184749 	 7.349182 	 -7.032629 
H 	 -5.827250 	 5.924494 	 -6.707025 
H 	 -1.687034 	 4.694921 	 -3.389666 
H 	 -2.761705 	 3.527200 	 -4.079600 
H 	 -0.660083 	 -3.691285 	 -4.433119 
H 	 0.299082 	 -4.153521 	 -5.693086 
H 	 -5.483641 	 5.693611 	 -4.045973 
H 	 -5.648762 	 4.186426 	 -4.364056 
H 	 -2.389582 	 -6.925897 	 -6.113000 
H 	 -1.845662 	 -5.514938 	 -5.977845 
H 	 4.661015 	 -4.399095 	 -7.282183 
H 	 4.713316 	 -4.480202 	 6.063650 
H 	 -2.057957 	 3.133313 	 -2.255222 
H 	 -2.123804 	 1.695001 	 -2.001867 
H 	 6.480170 	 2.570229 	 -0.919278 
H 	 5.489233 	 1.404033 	 -0.551089 
H 	 -6.958182 	 -3.712911 	 -2.436677 
H 	 6.914974 	 -4.621286 	 -1.674465 
H 	 2.459517 	 -2.377096 	 -3.196463 
H 	 1.547552 	 -3.467772 	 -2.714664 
H 	 2.884428 	 2.541896 	 -2.890807 
H 	 3.257041 	 3.750750 	 -1.986484 
H 	 -6.346554 	 -3.693372 	 1.298897 
H 	 -5.836213 	 -2.266216 	 1.534005 
H 	 2.162175 	 -4.571322 	 -7.176957 
H 	 1.020281 	 -3.722036 	 7.230665 
H 	 3.524271 	 2.365191 	 6.158121 
H 	 4.413520 	 2.097325 	 4.940789 
H 	 6.293732 	 -5.753561 	 1.150363 
H 	 -7.218896 	 -6.410392 	 1.602320 
H 	 -1.738022 	 -2.284032 	 3.712993 
H 	 -0.469051 	 -2.474106 	 4.603444 
H 	 -5.467061 	 -1.388188 	 -2.056847 
H 	 -5.013498 	 -0.086452 	 -1.426343 
H 	 -7.452307 	 -1.969572 	 4.575191 
H 	 -7.348222 	 -1.492354 	 6.006902 
H 	 -0.017949 	 0.910250 	 5.650051 
H 	 -0.868855 	 -0.238188 	 5.017556 
H 	 3.183873 	 4.640321 	 -6.093899 
H 	 4.586082 	 4.160070 	 -6.410264 
H 	 -5.969356 	 3.424175 	 -2.151444 
H 	 -4.506122 	 3.457310 	 -2.448533 
H 	 -1.995557 	 -2.304071 	 7.100242 
H 	 -1.975205 	 -3.415262 	 -6.788653 
H 	 6.630617 	 -1.686108 	 -5.421048 
H 	 6.738907 	 -1.220121 	 -3.961177 
H 	 3.604126 	 2.557072 	 -5.234456 
H 	 4.679940 	 1.636431 	 -5.268282 
H 	 -3.921942 	 -3.139756 	 3.036582 
H 	 -4.047530 	 -1.946998 	 3.998192 
H 	 -0.065287 	 1.090708 	 1.202002 
H 	 -0.709146 	 -0.003092 	 2.165782 
H 	 4.344736 	 5.724957 	 -0.036350 
H 	 2.929106 	 6.009272 	 -0.564411 
H 	 -5.587059 	 -4.888872 	 -4.562963 
H 	 -6.381810 	 -4.869815 	 -5.853938 
H 	 3.127933 	 0.083937 	 -0.013388 
H 	 2.868451 	 1.282994 	 -1.001120 
H 	 5.113739 	 -3.995375 	 -3.980544 
H 	 4.913759 	 -4.627985 	 -2.686334 
H 	 -5.383356 	 -4.815502 	 -1.219554 
H 	 -5.351171 	 -6.045197 	 -2.029240 
H 	 -3.467626 	 -5.045283 	 6.598051 
H 	 -3.401359 	 -4.027790 	 5.408143 
H 	 0.394631 	 0.543748 	 -4.440396 
H 	 0.688565 	 -0.967248 	 -4.119944 
H 	 -1.676228 	 5.580142 	 -6.044889 
H 	 -3.050098 	 5.373885 	 -5.482560 
H 	 1.538795 	 -5.767104 	 -3.490013 
H 	 2.819307 	 -5.259906 	 -2.823174 
H 	 -6.585883 	 4.781153 	 2.550827 
H 	 -5.451389 	 4.064486 	 3.043772 
H 	 3.460189 	 0.299529 	 6.454978 
H 	 4.021360 	 -0.941709 	 7.150997 
H 	 0.257029 	 3.384679 	 -6.389838 
H 	 0.504094 	 2.407088 	 -7.526021 
H 	 -6.249922 	 1.183560 	 -5.117706 
H 	 -5.725026 	 0.397455 	 -6.244185 
H 	 -5.154441 	 3.120268 	 6.916718 
H 	 -6.091732 	 2.639233 	 -6.871557 
H 	 -5.270007 	 -5.798981 	 2.708329 
H 	 -5.983482 	 -6.874401 	 3.459716 
H 	 -0.722321 	 6.898011 	 6.167859 
H 	 -0.962264 	 -6.840944 	 7.197066 
H 	 3.622797 	 6.322744 	 -4.129723 
H 	 2.587106 	 5.291051 	 -3.514412 
H 	 -0.246295 	 3.246266 	 -0.111198 
H 	 1.192306 	 2.927850 	 -0.222507 
H 	 -2.705235 	 2.337184 	 3.280551 
H 	 -3.950557 	 2.078061 	 4.091822 
H 	 3.596953 	 -5.558216 	 -0.873696 
H 	 4.205527 	 -6.977817 	 -0.827981 
H 	 -1.248094 	 0.117578 	 -7.560422 
H 	 -0.655129 	 -0.587064 	 -6.299615 
H 	 4.339086 	 -1.865977 	 3.511902 
H 	 4.975818 	 -0.450730 	 3.550268 
H 	 0.239853 	 -4.476955 	 5.482766 
H 	 0.511399 	 -5.697079 	 4.580018 
H 	 -0.516145 	 -5.714649 	 -0.358788 
H 	 -1.192643 	 -6.349218 	 -1.672855 
H 	 1.783811 	 3.164148 	 5.598520 
H 	 1.946452 	 1.916306 	 4.757422 
H 	 -1.351466 	 5.506789 	 0.694512 
H 	 -0.965792 	 4.643498 	 1.986314 
H 	 7.089400 	 4.453159 	 -6.171285 
H 	 6.068406 	 5.658932 	 -5.813317 
H 	 -3.068413 	 -0.640064 	 -3.096042 
H 	 -2.922397 	 -1.280988 	 -1.767490 
H 	 2.062131 	 -1.658200 	 6.384914 
H 	 0.736209 	 -1.455437 	 6.952421 
H 	 6.216484 	 6.401711 	 1.136182 
H 	 5.386281 	 5.083025 	 1.700438 
H 	 -4.223631 	 1.965191 	 1.182891 
H 	 -4.089291 	 1.551692 	 -0.333152 
H 	 -5.925324 	 -2.845673 	 7.212521 
H 	 -4.398488 	 -2.591380 	 -7.506211 
H 	 -4.034021 	 0.289019 	 4.809012 
H 	 -4.574538 	 -0.810348 	 5.808688 
H 	 1.320497 	 -5.639674 	 1.498258 
H 	 2.201211 	 -6.830229 	 1.819733 
H 	 6.538010 	 7.047163 	 -3.468161 
H 	 6.423757 	 -6.984669 	 -4.760255 
H 	 1.057321 	 6.003553 	 -5.881419 
H 	 0.254730 	 5.362403 	 -4.821086 
H 	 5.652609 	 1.044667 	 7.215469 
H 	 5.868649 	 2.221804 	 -6.848534 
H 	 -3.045585 	 0.098044 	 1.265158 
H 	 -2.948624 	 -0.771204 	 2.518027 
H 	 2.798377 	 -6.646341 	 -6.139302 
H 	 2.062731 	 -6.978050 	 -7.401134 
H 	 -2.381093 	 -2.331257 	 -4.184817 
H 	 -2.854242 	 -1.682415 	 -5.418368 
H 	 -2.783220 	 3.318644 	 5.948253 
H 	 -2.883780 	 1.767116 	 6.111330 
H 	 -7.495891 	 -0.780855 	 -0.764994 
H 	 6.409307 	 -1.819010 	 -0.277902 
H 	 2.718486 	 -2.504431 	 -0.066360 
H 	 3.805426 	 -2.218251 	 -1.049221 
H 	 4.869819 	 2.944537 	 1.138793 
H 	 5.307426 	 3.117723 	 2.581001 
H 	 -4.145103 	 5.999848 	 2.228201 
H 	 -2.935411 	 5.116760 	 2.464374 
H 	 4.173709 	 -4.916507 	 1.444757 
H 	 4.962504 	 -3.743552 	 0.879100 
H 	 4.745695 	 -0.981916 	 -3.910015 
H 	 3.782780 	 0.125301 	 -3.467944 
H 	 2.941761 	 -2.273394 	 -6.652892 
H 	 3.937243 	 -2.572199 	 -5.608833 
H 	 0.091086 	 7.126010 	 -3.663943 
H 	 -0.415614 	 -6.487843 	 -4.420082 
H 	 7.121607 	 -6.957915 	 5.007508 
H 	 6.063888 	 -7.135352 	 3.936421 
H 	 1.328545 	 4.669013 	 1.711318 
H 	 2.585705 	 4.406368 	 2.537639 
H 	 0.488803 	 6.953825 	 2.985358 
H 	 1.254841 	 6.570789 	 4.190333 
H 	 -6.582146 	 4.123870 	 0.412527 
H 	 -5.667729 	 5.309985 	 0.014667 
H 	 6.649098 	 1.098825 	 2.050650 
H 	 -7.498967 	 1.419463 	 3.345634 
H 	 0.191596 	 7.110418 	 -0.406737 
H 	 0.533158 	 6.036253 	 -1.531300 
H 	 -0.657576 	 -3.972564 	 2.890828 
H 	 -1.649956 	 -3.792278 	 1.717586 
H 	 -4.472650 	 6.541371 	 5.804689 
H 	 -3.834244 	 6.149981 	 4.425771 
H 	 -3.676104 	 6.585341 	 -0.253368 
H 	 -3.158607 	 5.612171 	 -1.361465 
H 	 -2.510489 	 7.279679 	 -3.416385 
H 	 -3.160253 	 -6.267561 	 -2.919483 
H 	 7.137765 	 -7.000494 	 -0.839732 
H 	 -6.938784 	 6.660211 	 -1.307144 
H 	 2.519381 	 0.251191 	 3.032207 
H 	 3.367361 	 1.459862 	 2.556449 
H 	 6.017413 	 4.627917 	 -2.018567 
H 	 6.113065 	 4.236771 	 -3.527327 
H 	 0.430312 	 -1.428634 	 0.491470 
H 	 0.099854 	 -2.909428 	 0.857012 
H 	 -0.587716 	 2.337820 	 3.485407 
H 	 -1.025619 	 3.697657 	 4.176930 
H 	 1.765296 	 -1.611664 	 4.044861 
H 	 1.584588 	 -2.211243 	 2.637382 
H 	 -5.987213 	 -2.522985 	 -4.268165 
H 	 -4.601837 	 -3.015337 	 -3.925621 
H 	 5.669359 	 -2.643290 	 6.666222 
H 	 5.378667 	 -1.712456 	 5.542519 
H 	 -2.632271 	 -2.056936 	 0.294818 
H 	 -3.952552 	 -2.959181 	 0.246618 
H 	 6.929309 	 0.981505 	 -2.915088 
H 	 -6.726970 	 0.127010 	 -2.894243 
H 	 -0.796094 	 4.319477 	 6.668466 
H 	 -2.018837 	 5.252424 	 6.475575 
H 	 -3.320703 	 1.411826 	 -4.645934 
H 	 -2.190378 	 1.704874 	 -5.697684 
H 	 -6.462975 	 0.188230 	 4.927361 
H 	 -6.223139 	 1.599749 	 5.530890 
H 	 -0.024356 	 4.308394 	 -3.076405 
O 	 6.598561 	 -7.144788 	 6.778410 
O 	 3.802225 	 -7.224453 	 2.967034 
O 	 1.768843 	 5.130103 	 5.844235 
O 	 -1.374454 	 -3.182616 	 -2.482439 
O 	 0.108966 	 -0.270109 	 -1.097058 
O 	 3.637558 	 -4.650854 	 4.650425 
O 	 -7.287818 	 -4.490875 	 3.491120 
O 	 -6.349847 	 -4.657997 	 6.419142 
O 	 -6.320093 	 -0.519512 	 1.906143 
O 	 -3.209338 	 -6.727883 	 0.842728 
O 	 4.256675 	 6.346367 	 5.616204 
O 	 6.427248 	 4.534012 	 4.810401 
O 	 -5.832491 	 6.689014 	 -7.345102 
O 	 -2.747742 	 4.413125 	 -3.643346 
O 	 -0.644902 	 -4.144094 	 -5.305065 
O 	 -5.829774 	 5.092317 	 -4.702233 
O 	 -2.523675 	 -6.041925 	 -6.495501 
O 	 5.293843 	 -4.434778 	 6.891896 
O 	 -1.744249 	 2.503747 	 -1.554756 
O 	 6.007479 	 2.146058 	 -0.192208 
O 	 -7.352646 	 -3.873551 	 -1.558230 
O 	 1.485481 	 -2.548654 	 -3.091105 
O 	 2.503948 	 3.310199 	 -2.409626 
O 	 -5.534599 	 -3.182800 	 1.419289 
O 	 1.196915 	 -4.564799 	 -7.170611 
O 	 4.450621 	 2.248889 	 5.890105 
O 	 7.150000 	 -6.151307 	 0.815786 
O 	 -0.785288 	 -2.070702 	 3.786073 
O 	 -5.830723 	 -0.622383 	 -1.542327 
O 	 -6.805364 	 -1.748319 	 5.242551 
O 	 -0.919222 	 0.651860 	 5.444101 
O 	 3.651933 	 3.888435 	 -6.429568 
O 	 -5.273912 	 2.893803 	 -2.623502 
O 	 -2.016680 	 -3.288732 	 7.133621 
O 	 6.521135 	 -2.015671 	 -4.504911 
O 	 3.981645 	 1.889972 	 -4.598085 
O 	 -3.533930 	 -2.738734 	 3.804708 
O 	 0.063681 	 0.568927 	 2.024232 
O 	 3.787509 	 5.590804 	 -0.822534 
O 	 -5.970945 	 -5.487858 	 -5.225529 
O 	 3.300297 	 1.019543 	 -0.187363 
O 	 4.440803 	 -4.496831 	 -3.516641 
O 	 -4.756216 	 -5.493554 	 -1.496576 
O 	 -3.837640 	 -4.855657 	 5.712822 
O 	 0.570064 	 -0.329339 	 -4.837575 
O 	 -2.590032 	 5.918849 	 -6.167635 
O 	 1.854310 	 -5.179897 	 -2.755945 
O 	 -6.410364 	 3.915950 	 2.972298 
O 	 3.166398 	 -0.467460 	 6.963792 
O 	 -0.230648 	 2.869175 	 -7.049147 
O 	 -5.469816 	 1.144567 	 -5.707039 
O 	 -6.109469 	 3.152968 	 7.171379 
O 	 -5.193788 	 -6.752614 	 2.920440 
O 	 -0.275901 	 -7.275620 	 6.629136 
O 	 2.795854 	 5.828491 	 -4.310326 
O 	 0.465626 	 2.916584 	 0.469867 
O 	 -3.493255 	 1.752262 	 3.298545 
O 	 4.440253 	 -6.037056 	 -0.881124 
O 	 -1.382041 	 -0.655108 	 -6.964168 
O 	 5.105720 	 -1.365623 	 3.865449 
O 	 0.282541 	 -4.744765 	 4.544391 
O 	 -0.945935 	 -6.507572 	 -0.737082 
O 	 1.687367 	 2.200014 	 5.665907 
O 	 -1.311591 	 5.511594 	 1.678463 
O 	 6.182678 	 4.778856 	 -6.255752 
O 	 -3.179216 	 -0.400192 	 -2.147122 
O 	 1.168049 	 -2.086816 	 6.344464 
O 	 5.356332 	 6.056590 	 1.504534 
O 	 -4.538074 	 1.334635 	 0.501067 
O 	 -5.284968 	 -2.235030 	 -7.226284 
O 	 -3.768902 	 -0.482849 	 5.383609 
O 	 1.719661 	 -6.426056 	 1.058687 
O 	 6.059597 	 7.139226 	 -4.313751 
O 	 0.345793 	 5.339417 	 -5.848423 
O 	 5.992767 	 1.247301 	 -6.809349 
O 	 -2.563308 	 -0.672826 	 1.612614 
O 	 2.969615 	 -6.798167 	 -7.093452 
O 	 -3.217806 	 -2.071010 	 -4.585004 
O 	 -3.374199 	 2.600812 	 6.217823 
O 	 6.538808 	 -0.895643 	 -0.350572 
O 	 3.681592 	 -2.356311 	 -0.113986 
O 	 4.570157 	 3.416993 	 1.965398 
O 	 -3.864332 	 5.275542 	 2.807898 
O 	 5.007578 	 -4.427289 	 1.600503 
O 	 4.007787 	 -0.791581 	 -3.274734 
O 	 3.464557 	 -3.030786 	 -6.327142 
O 	 0.392767 	 -7.052698 	 -4.291773 
O 	 6.981965 	 -6.844168 	 4.023521 
O 	 1.739770 	 4.902672 	 2.581220 
O 	 0.734687 	 7.335616 	 3.855300 
O 	 -6.529135 	 4.875968 	 -0.208673 
O 	 6.469968 	 1.297948 	 2.988651 
O 	 0.885098 	 6.505626 	 -0.744250 
O 	 -0.873734 	 -4.306642 	 1.977233 
O 	 -3.624426 	 6.542821 	 5.311449 
O 	 -3.546388 	 5.634328 	 -0.477029 
O 	 -2.266276 	 -6.723588 	 -3.071616 
O 	 7.314450 	 7.331108 	 -1.581969 
O 	 3.278408 	 0.805030 	 3.256934 
O 	 6.354521 	 3.934312 	 -2.637379 
O 	 0.779557 	 -2.337590 	 0.488193 
O 	 -1.131661 	 3.162961 	 3.369774 
O 	 2.196301 	 -2.118110 	 3.359561 
O 	 -5.496327 	 -2.870579 	 -3.493037 
O 	 5.610633 	 -1.679942 	 6.485604 
O 	 -3.057960 	 -2.837237 	 -0.118261 
O 	 -7.446667 	 0.415474 	 -3.502593 
O 	 -1.311664 	 4.796695 	 5.973008 
O 	 -2.404125 	 1.696195 	 -4.746494 
O 	 -6.138721 	 1.073660 	 4.736304 
O 	 -0.385280 	 5.244597 	 -3.045314 
K 	 -2.200909 	 -6.578852 	 3.807830 
