333
conformation = 35
H 	 -7.637359 	 -7.341925 	 -7.605424 
H 	 6.353089 	 -6.129868 	 7.205945 
H 	 3.783438 	 -7.157123 	 3.810247 
H 	 4.657009 	 -6.889392 	 2.546961 
H 	 2.070385 	 4.965389 	 7.094968 
H 	 2.549286 	 5.790990 	 6.026142 
H 	 -0.148104 	 -3.566748 	 -2.050868 
H 	 -1.647174 	 -3.381556 	 -1.951338 
H 	 -0.260250 	 0.154647 	 -1.874911 
H 	 1.116377 	 -0.567322 	 -2.261155 
H 	 3.923792 	 -4.939243 	 4.033241 
H 	 3.644000 	 -3.402024 	 4.166872 
H 	 7.028641 	 -3.487651 	 2.889178 
H 	 -7.227482 	 -4.317802 	 3.997036 
H 	 -5.832601 	 -4.294627 	 6.032565 
H 	 -7.334142 	 -3.756656 	 6.342257 
H 	 -5.926409 	 0.454348 	 1.702731 
H 	 -7.026555 	 -0.217501 	 0.942060 
H 	 -3.760626 	 -5.769941 	 0.612633 
H 	 -2.355544 	 -6.286364 	 0.342551 
H 	 4.895716 	 5.759159 	 5.732132 
H 	 4.147880 	 6.915926 	 6.366971 
H 	 7.008730 	 4.066691 	 5.969564 
H 	 5.799534 	 3.648744 	 5.232749 
H 	 -5.195371 	 -6.780523 	 -6.777686 
H 	 -5.194827 	 6.535097 	 -6.643382 
H 	 -1.647027 	 5.133686 	 -3.336367 
H 	 -2.372363 	 3.961212 	 -4.212214 
H 	 -0.926027 	 -4.286977 	 -4.208819 
H 	 -0.196099 	 -4.060811 	 -5.592920 
H 	 -6.233983 	 6.336637 	 -3.995134 
H 	 -5.505010 	 4.973482 	 -4.228990 
H 	 -2.287665 	 -6.907713 	 -6.126772 
H 	 -2.096544 	 -5.430352 	 -5.909913 
H 	 4.948808 	 -3.999230 	 -7.040861 
H 	 4.756868 	 -4.436978 	 6.332153 
H 	 -1.688478 	 3.352760 	 -2.097179 
H 	 -1.787116 	 1.931227 	 -1.683717 
H 	 6.856371 	 3.246974 	 -0.416376 
H 	 5.493440 	 2.497111 	 -0.458256 
H 	 -7.228133 	 -3.572796 	 -1.148698 
H 	 6.253842 	 -4.149735 	 -0.945985 
H 	 2.883120 	 -1.472512 	 -3.438493 
H 	 2.045538 	 -2.780874 	 -3.335490 
H 	 2.833554 	 3.005022 	 -3.114690 
H 	 3.102699 	 4.117497 	 -2.005179 
H 	 -5.633173 	 -2.924130 	 1.897186 
H 	 -5.069065 	 -1.758069 	 1.006328 
H 	 2.255189 	 -3.527201 	 -6.395432 
H 	 1.481306 	 -3.839220 	 7.185590 
H 	 3.769484 	 2.306012 	 6.040952 
H 	 4.856939 	 1.512639 	 5.273408 
H 	 6.341896 	 -6.477604 	 0.530032 
H 	 -7.301216 	 -5.721083 	 0.949643 
H 	 -1.732487 	 -1.894728 	 3.722988 
H 	 -0.173680 	 -1.945789 	 3.833730 
H 	 -4.964144 	 -0.929838 	 -2.389386 
H 	 -4.690457 	 0.367290 	 -1.638235 
H 	 -6.422369 	 -1.598411 	 4.238465 
H 	 -7.025320 	 -1.211987 	 5.607627 
H 	 -0.003995 	 1.586492 	 4.817052 
H 	 -0.498355 	 0.117508 	 4.529259 
H 	 2.647152 	 4.240815 	 -5.768019 
H 	 4.089443 	 4.226877 	 -6.262428 
H 	 -5.152319 	 3.509535 	 -1.975928 
H 	 -4.110652 	 3.604633 	 -3.047948 
H 	 -1.236060 	 -1.911088 	 7.139868 
H 	 -0.529036 	 -3.037268 	 6.314552 
H 	 6.906252 	 -1.272559 	 -5.742476 
H 	 7.007721 	 -0.459697 	 -4.406654 
H 	 3.227714 	 1.879980 	 -5.107447 
H 	 4.707547 	 1.966294 	 -5.433678 
H 	 -3.871999 	 -2.917749 	 2.608770 
H 	 -3.897873 	 -2.264588 	 4.065933 
H 	 0.699479 	 1.672629 	 1.116411 
H 	 -0.196883 	 0.446540 	 1.360451 
H 	 4.625496 	 5.239188 	 -0.357448 
H 	 3.236521 	 5.869493 	 -0.695446 
H 	 -6.052956 	 -4.562088 	 -5.222625 
H 	 -6.529101 	 -5.033045 	 -6.655033 
H 	 3.417434 	 0.523837 	 -0.284619 
H 	 2.620678 	 1.642681 	 -1.131958 
H 	 5.900922 	 -3.786899 	 -2.821323 
H 	 4.492126 	 -4.375431 	 -2.806003 
H 	 -4.973744 	 -4.492341 	 -2.528845 
H 	 -5.108144 	 -6.008849 	 -2.284684 
H 	 -3.181011 	 -5.451663 	 6.877976 
H 	 -2.858682 	 -4.068026 	 6.256841 
H 	 0.062999 	 0.569120 	 -4.122794 
H 	 0.786081 	 -0.805275 	 -4.433992 
H 	 -1.533144 	 5.371555 	 -6.364714 
H 	 -2.717124 	 5.445765 	 -5.495095 
H 	 1.125865 	 -5.597935 	 -3.534999 
H 	 1.867310 	 -5.253813 	 -2.268697 
H 	 -7.122301 	 3.643351 	 2.878316 
H 	 -5.695352 	 3.835176 	 3.280831 
H 	 3.000927 	 0.159456 	 -7.469457 
H 	 4.221684 	 -0.370557 	 6.605143 
H 	 0.076396 	 3.840127 	 -6.708485 
H 	 0.136472 	 2.722702 	 7.082281 
H 	 -5.449224 	 1.171808 	 -5.100311 
H 	 -4.990690 	 0.206140 	 -6.137095 
H 	 -5.181333 	 3.819759 	 6.691232 
H 	 -5.698984 	 3.100705 	 -6.916415 
H 	 -5.202445 	 -5.430841 	 2.630027 
H 	 -5.868273 	 -6.617145 	 3.341762 
H 	 0.039791 	 -7.291495 	 7.207370 
H 	 -1.330790 	 -6.617669 	 7.062820 
H 	 4.393298 	 6.534681 	 -4.140198 
H 	 3.014648 	 6.115853 	 -3.442632 
H 	 -0.266315 	 3.228955 	 -0.542844 
H 	 1.205995 	 3.498700 	 -0.756331 
H 	 -2.516734 	 2.748586 	 3.121984 
H 	 -3.697643 	 1.991718 	 3.780178 
H 	 3.323047 	 -6.024231 	 -0.546785 
H 	 4.441767 	 -6.979754 	 -1.085963 
H 	 -0.787012 	 0.204564 	 7.064833 
H 	 -0.510036 	 -0.066222 	 -6.301548 
H 	 4.665894 	 -1.582107 	 2.811071 
H 	 5.678370 	 -0.491582 	 3.215704 
H 	 1.115168 	 -3.706052 	 4.689452 
H 	 0.592239 	 -5.137790 	 4.494686 
H 	 -0.045159 	 -5.858622 	 -0.659335 
H 	 -0.917257 	 -6.509677 	 -1.782593 
H 	 1.677137 	 3.672407 	 5.456493 
H 	 2.289337 	 2.554340 	 4.437570 
H 	 -1.168510 	 6.085600 	 0.431480 
H 	 -0.626780 	 4.900588 	 1.296769 
H 	 -7.587024 	 4.540020 	 -6.491460 
H 	 6.630460 	 5.309863 	 -5.306940 
H 	 -2.408687 	 -0.032615 	 -3.200931 
H 	 -2.360763 	 -0.400895 	 -1.772136 
H 	 2.240309 	 -1.733602 	 6.120632 
H 	 0.880772 	 -1.399216 	 6.473472 
H 	 6.639834 	 6.006301 	 1.457114 
H 	 5.265760 	 5.501384 	 1.957192 
H 	 -4.357154 	 2.302064 	 1.173486 
H 	 -5.445595 	 2.488929 	 0.110359 
H 	 -5.204070 	 -1.876484 	 6.994955 
H 	 -4.514281 	 -2.951102 	 -7.061356 
H 	 -4.395409 	 -0.348841 	 5.621624 
H 	 -3.001845 	 -0.691695 	 6.225261 
H 	 1.157332 	 -5.328707 	 1.338905 
H 	 2.294973 	 -6.207098 	 1.839093 
H 	 6.703206 	 -7.317242 	 -4.029694 
H 	 5.933829 	 7.516738 	 -5.396065 
H 	 1.114183 	 6.034699 	 -5.609553 
H 	 0.079050 	 5.266202 	 -4.816523 
H 	 6.016771 	 1.610470 	 -7.351854 
H 	 7.059858 	 1.545219 	 -6.205675 
H 	 -2.808863 	 0.526929 	 1.115901 
H 	 -2.104936 	 -0.466882 	 2.080507 
H 	 3.173304 	 -7.233731 	 -6.100401 
H 	 2.552312 	 -6.079971 	 -6.854202 
H 	 -2.216974 	 -2.508597 	 -4.556836 
H 	 -2.933497 	 -1.571615 	 -5.393197 
H 	 -2.530499 	 3.154628 	 6.504522 
H 	 -2.797915 	 1.595459 	 6.113293 
H 	 -7.135026 	 -0.399141 	 -1.305575 
H 	 6.516006 	 -1.376100 	 -1.310309 
H 	 2.908421 	 -1.802607 	 -0.411906 
H 	 4.236150 	 -1.977616 	 -1.244690 
H 	 4.307866 	 3.580187 	 1.372527 
H 	 4.801602 	 3.168225 	 2.778259 
H 	 -4.303925 	 6.337661 	 2.420089 
H 	 -2.979095 	 5.567198 	 2.415927 
H 	 4.559012 	 -4.438156 	 1.534903 
H 	 4.721368 	 -2.941889 	 1.132313 
H 	 4.967712 	 -1.151578 	 -3.347874 
H 	 4.382022 	 0.258195 	 -3.825075 
H 	 3.470250 	 -1.580136 	 -5.894438 
H 	 4.233071 	 -2.460100 	 -5.056792 
H 	 0.025484 	 7.400876 	 -4.344747 
H 	 0.229459 	 -6.309936 	 -5.409523 
H 	 7.227851 	 -7.308853 	 4.945198 
H 	 6.766969 	 6.866983 	 3.680404 
H 	 1.226060 	 5.006943 	 1.743933 
H 	 2.556317 	 4.650180 	 2.533629 
H 	 1.013079 	 6.933854 	 3.711609 
H 	 1.173489 	 -7.045584 	 4.832842 
H 	 -6.017755 	 4.852111 	 0.787257 
H 	 -5.100210 	 5.102131 	 -0.372462 
H 	 6.654563 	 1.908770 	 2.160400 
H 	 7.015489 	 1.778083 	 3.691157 
H 	 1.339564 	 7.265850 	 -0.237583 
H 	 1.157215 	 6.733062 	 -1.709289 
H 	 -0.953622 	 -3.688561 	 2.101327 
H 	 -1.518778 	 -3.706832 	 0.696808 
H 	 -4.151772 	 7.033499 	 6.267948 
H 	 -3.813646 	 6.367603 	 4.887196 
H 	 -3.624403 	 6.932727 	 -0.483981 
H 	 -3.146021 	 5.649944 	 -1.266313 
H 	 -2.039631 	 -7.316236 	 -3.199620 
H 	 -2.904580 	 -6.146907 	 -2.708969 
H 	 -6.970372 	 -6.864764 	 -1.434919 
H 	 -6.474570 	 6.564109 	 -1.681758 
H 	 2.844154 	 0.232741 	 3.225403 
H 	 3.005708 	 1.649112 	 2.647181 
H 	 6.242349 	 5.301653 	 -2.293610 
H 	 5.197700 	 4.279736 	 -2.703524 
H 	 0.781421 	 -1.345931 	 0.358882 
H 	 0.599040 	 -2.886431 	 0.664842 
H 	 0.302108 	 3.410501 	 3.694726 
H 	 -0.896970 	 4.148912 	 4.216531 
H 	 1.934179 	 -1.426756 	 3.457899 
H 	 2.216755 	 -1.807983 	 1.991906 
H 	 -6.517866 	 -2.472857 	 -4.122586 
H 	 -5.012995 	 -2.459581 	 -4.118690 
H 	 5.659602 	 -2.346509 	 6.444695 
H 	 5.662307 	 -1.567691 	 5.202425 
H 	 -2.576374 	 -1.869049 	 0.339470 
H 	 -3.633355 	 -2.827222 	 -0.459630 
H 	 -7.120280 	 2.063167 	 -3.494282 
H 	 -6.556945 	 0.775676 	 -2.970085 
H 	 -0.397025 	 5.422209 	 5.895100 
H 	 -1.881254 	 5.788233 	 5.944771 
H 	 -3.296345 	 2.111310 	 -5.777700 
H 	 -1.688639 	 2.132312 	 -5.944307 
H 	 -6.410552 	 0.869108 	 4.891221 
H 	 -6.459634 	 2.033587 	 5.967380 
H 	 -0.057072 	 5.497735 	 -2.721279 
O 	 6.333385 	 -7.117099 	 7.006460 
O 	 3.968194 	 -6.468536 	 3.113764 
O 	 1.683615 	 5.423137 	 6.331115 
O 	 -0.882550 	 -3.167246 	 -2.524403 
O 	 0.706793 	 0.217733 	 -1.786208 
O 	 3.889724 	 -4.205584 	 4.703053 
O 	 -6.988753 	 -3.760108 	 3.228106 
O 	 -6.737701 	 -4.530973 	 6.407530 
O 	 -6.499658 	 -0.357920 	 1.762867 
O 	 -3.159359 	 -6.497847 	 0.897715 
O 	 4.172971 	 6.375806 	 5.561142 
O 	 6.359474 	 4.443673 	 5.324228 
O 	 -5.368213 	 7.268212 	 -7.269313 
O 	 -2.524574 	 4.600115 	 -3.453504 
O 	 -1.079862 	 -3.948327 	 -5.128587 
O 	 -6.004920 	 5.688738 	 -4.686328 
O 	 -2.662635 	 -6.044624 	 -6.402648 
O 	 5.439856 	 -4.228413 	 7.029486 
O 	 -1.792822 	 2.841839 	 -1.268367 
O 	 6.222890 	 2.773174 	 0.134772 
O 	 6.737857 	 -3.383700 	 -1.353663 
O 	 1.958575 	 -1.802777 	 -3.396285 
O 	 2.389861 	 3.624893 	 -2.485754 
O 	 -4.957016 	 -2.748029 	 1.193596 
O 	 1.555147 	 -4.131801 	 -6.767354 
O 	 4.762971 	 2.290311 	 5.877392 
O 	 7.071336 	 -5.964917 	 0.159611 
O 	 -0.910077 	 -1.461172 	 3.456677 
O 	 -5.263798 	 -0.414180 	 -1.600532 
O 	 -6.242885 	 -1.076202 	 5.028649 
O 	 -0.273810 	 0.769688 	 5.238130 
O 	 3.159474 	 4.170820 	 -6.610820 
O 	 -4.868601 	 3.023369 	 -2.789228 
O 	 -1.404862 	 -2.711686 	 6.589053 
O 	 7.032587 	 -1.378248 	 -4.785246 
O 	 4.083989 	 1.956649 	 -4.676321 
O 	 -3.413840 	 -2.921446 	 3.517486 
O 	 0.594538 	 0.884846 	 1.678872 
O 	 4.035204 	 5.489964 	 -1.100508 
O 	 -5.947440 	 -5.264855 	 -5.886473 
O 	 3.414264 	 1.457714 	 -0.583973 
O 	 5.025493 	 -3.721315 	 -3.327645 
O 	 -4.618732 	 -5.208527 	 -1.930992 
O 	 -3.361125 	 -4.882330 	 6.085453 
O 	 0.436717 	 0.012625 	 -4.839957 
O 	 -2.410729 	 5.805283 	 -6.344222 
O 	 1.517233 	 -4.809038 	 -3.048357 
O 	 -6.268128 	 3.974141 	 2.502855 
O 	 3.241269 	 -0.323827 	 6.649871 
O 	 -0.107708 	 2.878141 	 -6.862990 
O 	 -5.138438 	 1.170614 	 -6.072364 
O 	 -5.976663 	 3.517567 	 7.150214 
O 	 -5.251995 	 -6.419591 	 2.587060 
O 	 -0.520762 	 -6.838047 	 6.578960 
O 	 3.463942 	 6.265644 	 -4.291699 
O 	 0.515467 	 3.621531 	 -0.069397 
O 	 -3.410012 	 2.343316 	 2.912210 
O 	 4.186927 	 -6.051764 	 -1.005771 
O 	 -1.097255 	 -0.309291 	 -7.050734 
O 	 5.419280 	 -1.410111 	 3.401423 
O 	 0.289867 	 -4.233962 	 4.689050 
O 	 -0.746148 	 -6.521989 	 -0.810801 
O 	 1.576924 	 2.794642 	 5.049210 
O 	 -1.115130 	 5.745825 	 1.350209 
O 	 6.498261 	 4.657938 	 -5.996263 
O 	 -2.007933 	 0.302176 	 -2.370075 
O 	 1.328644 	 -1.996491 	 5.848313 
O 	 5.758612 	 6.342586 	 1.767898 
O 	 -4.811311 	 1.835443 	 0.445711 
O 	 -4.760369 	 -2.012774 	 -7.065844 
O 	 -3.425733 	 -0.236221 	 5.503223 
O 	 1.933744 	 -5.817774 	 0.974548 
O 	 5.912826 	 7.240239 	 -4.484297 
O 	 0.434864 	 5.327294 	 -5.748001 
O 	 6.126375 	 1.306338 	 -6.404930 
O 	 -2.336840 	 -0.322287 	 1.119839 
O 	 2.984416 	 -6.945838 	 -7.029650 
O 	 -2.936763 	 -1.813849 	 -4.433776 
O 	 -3.199382 	 2.482519 	 6.293650 
O 	 6.819215 	 -0.522535 	 -0.990315 
O 	 3.906648 	 -1.770992 	 -0.365862 
O 	 4.332000 	 3.887031 	 2.302839 
O 	 -3.846439 	 5.612790 	 2.866559 
O 	 5.188346 	 -3.704175 	 1.504153 
O 	 4.162875 	 -0.704858 	 -3.623393 
O 	 3.714865 	 -2.523611 	 -5.881265 
O 	 0.653296 	 -6.873915 	 -4.722568 
O 	 7.241418 	 -7.248769 	 3.959515 
O 	 1.789003 	 5.292377 	 2.512051 
O 	 0.846900 	 -7.005128 	 3.902958 
O 	 -6.000942 	 4.793923 	 -0.186928 
O 	 6.308869 	 2.027317 	 3.061784 
O 	 1.682342 	 6.710045 	 -0.920112 
O 	 -0.833399 	 -4.164987 	 1.261349 
O 	 -3.413134 	 6.879597 	 5.630620 
O 	 -3.795249 	 6.373655 	 -1.299076 
O 	 -2.346161 	 -6.388095 	 -3.418962 
O 	 -6.639126 	 7.386861 	 -2.122404 
O 	 3.011914 	 1.180993 	 3.492312 
O 	 6.114192 	 4.331705 	 -2.405982 
O 	 1.265468 	 -2.216998 	 0.414560 
O 	 -0.678703 	 3.486919 	 3.521251 
O 	 2.649999 	 -1.619110 	 2.845002 
O 	 -5.766893 	 -2.815972 	 -3.582433 
O 	 5.935481 	 -1.456060 	 6.144888 
O 	 -2.673570 	 -2.655869 	 -0.244023 
O 	 -6.998964 	 1.149122 	 -3.761204 
O 	 -1.293104 	 5.019965 	 5.811460 
O 	 -2.420280 	 2.302925 	 -5.330685 
O 	 -6.713267 	 1.831108 	 5.013674 
O 	 -0.535704 	 6.099783 	 -3.356685 
K 	 -2.161283 	 -5.924684 	 3.701735 
