333
conformation = 40
H 	 -7.503965 	 -7.470253 	 -7.351230 
H 	 6.219901 	 -6.456573 	 7.199043 
H 	 4.210152 	 7.389606 	 3.889765 
H 	 4.974784 	 -6.916387 	 2.809267 
H 	 1.835155 	 4.967375 	 7.248650 
H 	 2.406291 	 5.680735 	 6.021176 
H 	 0.000929 	 -4.100381 	 -2.393932 
H 	 -1.088233 	 -3.252656 	 -1.595509 
H 	 0.256803 	 -0.135455 	 -2.399622 
H 	 1.606935 	 -0.725642 	 -1.902402 
H 	 3.995528 	 -5.100908 	 4.312720 
H 	 3.785563 	 -3.642658 	 3.949675 
H 	 6.860308 	 -3.744498 	 2.909444 
H 	 -7.140627 	 -3.932353 	 4.124039 
H 	 -5.733063 	 -4.427146 	 6.310628 
H 	 -7.245338 	 -4.128764 	 6.562968 
H 	 -6.185424 	 0.121361 	 1.234952 
H 	 -7.097178 	 -1.057324 	 0.995786 
H 	 -3.732065 	 -6.262440 	 0.296936 
H 	 -2.262587 	 -6.533789 	 0.321113 
H 	 4.862744 	 5.465645 	 5.374801 
H 	 4.305915 	 6.797017 	 6.151227 
H 	 6.819698 	 4.696079 	 6.178420 
H 	 5.811580 	 3.507340 	 5.973927 
H 	 -5.051968 	 -6.952933 	 -6.885291 
H 	 -5.125192 	 6.481323 	 -6.513018 
H 	 -1.544036 	 4.866877 	 -3.398961 
H 	 -2.172792 	 3.394962 	 -3.919427 
H 	 -1.315930 	 -4.139404 	 -4.143955 
H 	 -0.384317 	 -3.889083 	 -5.415512 
H 	 -6.363949 	 6.025903 	 -3.949798 
H 	 -5.426409 	 4.756187 	 -4.219331 
H 	 -2.915909 	 -7.263301 	 -5.794594 
H 	 -2.358886 	 -5.792618 	 -5.776974 
H 	 4.923594 	 -4.026222 	 -7.068146 
H 	 4.928171 	 -4.395944 	 6.326161 
H 	 -2.400795 	 3.237791 	 -1.571449 
H 	 -1.877159 	 1.816162 	 -1.551938 
H 	 6.817594 	 3.179095 	 -0.370530 
H 	 5.910955 	 1.922333 	 -0.132254 
H 	 -7.242441 	 -3.891893 	 -1.081736 
H 	 6.355664 	 -4.370032 	 -0.501475 
H 	 2.787053 	 -1.866212 	 -3.456582 
H 	 1.613215 	 -2.942671 	 -3.767660 
H 	 2.377708 	 2.741443 	 -3.178031 
H 	 3.138458 	 3.708775 	 -2.191190 
H 	 -5.735486 	 -3.236729 	 0.799631 
H 	 -5.096921 	 -1.976016 	 1.358046 
H 	 2.494408 	 -3.698562 	 -6.342224 
H 	 1.333059 	 -3.797813 	 -7.317101 
H 	 4.114218 	 2.075016 	 6.313249 
H 	 4.653505 	 1.918134 	 4.935303 
H 	 6.518478 	 -6.982016 	 -0.012676 
H 	 -7.138450 	 -6.472861 	 0.688816 
H 	 -1.461345 	 -2.028440 	 4.147652 
H 	 -0.159076 	 -2.300926 	 3.417000 
H 	 -4.450840 	 -0.997150 	 -2.214879 
H 	 -4.780721 	 -0.006310 	 -1.108348 
H 	 -6.020203 	 -1.409045 	 4.141107 
H 	 -6.961485 	 -1.220220 	 5.306843 
H 	 0.780000 	 0.764617 	 5.060209 
H 	 -0.400962 	 -0.083726 	 4.432621 
H 	 2.622822 	 4.069347 	 -5.946621 
H 	 3.969190 	 4.149709 	 -6.650625 
H 	 -5.211136 	 3.296892 	 -2.047200 
H 	 -3.972289 	 3.178935 	 -2.865232 
H 	 -0.905598 	 -2.346441 	 6.905824 
H 	 -0.625153 	 -3.433831 	 5.901865 
H 	 7.090104 	 -1.493929 	 -5.928550 
H 	 7.373163 	 -0.585148 	 -4.741417 
H 	 3.396952 	 1.532882 	 -5.259662 
H 	 4.972579 	 1.683205 	 -5.013396 
H 	 -4.037844 	 -3.252940 	 2.648197 
H 	 -3.809565 	 -2.841740 	 4.118202 
H 	 0.897848 	 1.639371 	 1.156146 
H 	 -0.142841 	 0.550662 	 1.421722 
H 	 4.821885 	 4.779246 	 -0.416035 
H 	 3.420360 	 5.495550 	 -0.591897 
H 	 -5.891550 	 -4.675388 	 -5.367338 
H 	 -6.314899 	 -5.065358 	 -6.843613 
H 	 3.968807 	 0.359949 	 -0.566668 
H 	 2.752317 	 1.090071 	 -1.201867 
H 	 5.905577 	 -3.859726 	 -3.002247 
H 	 4.603480 	 -4.684505 	 -3.396875 
H 	 -5.057862 	 -4.663938 	 -2.448713 
H 	 -5.280417 	 -6.198110 	 -2.187332 
H 	 -3.458224 	 -5.782534 	 6.933908 
H 	 -2.613145 	 -4.617959 	 6.476899 
H 	 0.747395 	 0.690707 	 -4.487936 
H 	 0.898478 	 -0.859420 	 -4.609073 
H 	 -1.792340 	 5.213057 	 -6.876018 
H 	 -2.703943 	 5.175203 	 -5.659037 
H 	 1.462265 	 -5.758223 	 -3.568903 
H 	 2.073570 	 -5.485731 	 -2.289348 
H 	 -6.964031 	 3.180151 	 2.624303 
H 	 -5.800162 	 4.116829 	 3.160103 
H 	 3.006469 	 -0.256661 	 -7.287368 
H 	 4.203430 	 -0.923911 	 6.686424 
H 	 0.281017 	 3.225709 	 -6.417544 
H 	 0.237637 	 2.682567 	 7.069498 
H 	 -5.666780 	 0.867717 	 -5.389121 
H 	 -4.702835 	 -0.142045 	 -6.130382 
H 	 -5.508743 	 4.063374 	 6.581831 
H 	 -5.179674 	 2.808962 	 7.461687 
H 	 -5.754368 	 -5.730776 	 3.035864 
H 	 -6.248289 	 -7.088533 	 2.785553 
H 	 -0.004309 	 7.337690 	 7.254422 
H 	 -1.323485 	 -6.818433 	 7.074465 
H 	 4.430479 	 6.621282 	 -4.061206 
H 	 3.219975 	 5.917508 	 -3.365371 
H 	 -0.198131 	 3.005306 	 -0.522488 
H 	 1.217938 	 3.523904 	 -0.869206 
H 	 -2.412487 	 2.093048 	 2.751377 
H 	 -3.723984 	 1.725418 	 3.571617 
H 	 3.442003 	 -6.183815 	 -0.408828 
H 	 3.792378 	 -7.307465 	 -1.389852 
H 	 -0.592039 	 0.270544 	 7.490712 
H 	 -0.927870 	 -0.406039 	 -6.169323 
H 	 4.796643 	 -1.893923 	 3.070251 
H 	 5.676467 	 -0.682592 	 3.224074 
H 	 1.033678 	 -3.871356 	 4.894339 
H 	 0.699604 	 -5.337586 	 4.347832 
H 	 -0.333578 	 -5.798234 	 -0.771903 
H 	 -0.810059 	 -6.864162 	 -1.854876 
H 	 1.859942 	 3.557272 	 5.381770 
H 	 2.381783 	 2.247812 	 4.720713 
H 	 -1.025498 	 5.856060 	 0.248371 
H 	 -0.847738 	 4.725020 	 1.301181 
H 	 -7.373308 	 4.380131 	 -5.894757 
H 	 6.129582 	 4.761585 	 -5.349026 
H 	 -1.939778 	 -0.230070 	 -3.233289 
H 	 -1.947434 	 -0.587589 	 -1.725902 
H 	 2.156503 	 -1.633157 	 6.174297 
H 	 0.739644 	 -1.500076 	 5.468955 
H 	 6.749125 	 5.615355 	 1.943242 
H 	 5.173574 	 5.479984 	 2.027989 
H 	 -4.380992 	 1.914612 	 1.318099 
H 	 -5.199999 	 2.596759 	 0.135352 
H 	 -5.062672 	 -2.012674 	 7.054630 
H 	 -3.845802 	 -2.645561 	 -7.334480 
H 	 -4.144629 	 -0.373163 	 6.030104 
H 	 -2.661853 	 -0.863640 	 6.221155 
H 	 1.374271 	 -5.110782 	 1.256022 
H 	 2.379077 	 -6.247716 	 1.617105 
H 	 6.544145 	 -7.388383 	 -3.893813 
H 	 6.124849 	 7.422856 	 -5.470576 
H 	 0.838442 	 5.799680 	 -6.060410 
H 	 0.124309 	 5.210494 	 -4.842128 
H 	 6.071197 	 1.407909 	 -7.144774 
H 	 6.933057 	 1.494776 	 -5.927241 
H 	 -2.791530 	 0.323851 	 0.892557 
H 	 -2.410626 	 -0.861534 	 1.835792 
H 	 3.431618 	 -7.252934 	 -6.077632 
H 	 2.756645 	 -6.337824 	 -7.034384 
H 	 -2.138760 	 -2.554731 	 -4.859032 
H 	 -3.367796 	 -1.649885 	 -5.204612 
H 	 -2.429047 	 2.943870 	 6.140907 
H 	 -2.838716 	 1.486357 	 5.938791 
H 	 -7.202621 	 -0.922985 	 -1.520086 
H 	 6.628099 	 -1.179763 	 -0.384082 
H 	 3.205818 	 -2.405058 	 -0.494112 
H 	 4.523769 	 -2.198963 	 -1.213881 
H 	 4.218271 	 3.265238 	 1.504933 
H 	 4.920166 	 3.426627 	 2.850252 
H 	 -4.034648 	 6.337737 	 2.521448 
H 	 -3.051922 	 5.196640 	 2.511662 
H 	 4.463296 	 -4.369539 	 1.697766 
H 	 5.069037 	 -3.357014 	 0.726984 
H 	 5.310465 	 -0.837014 	 -3.188939 
H 	 4.235253 	 0.178074 	 -3.710379 
H 	 3.568420 	 -1.957627 	 -5.288904 
H 	 4.184895 	 -3.278691 	 -5.007975 
H 	 0.288942 	 7.312082 	 -4.229497 
H 	 -0.032021 	 -6.535022 	 -5.368424 
H 	 7.317214 	 -7.380472 	 4.887453 
H 	 6.564195 	 6.619167 	 3.853723 
H 	 1.509066 	 4.617832 	 1.749870 
H 	 2.781064 	 4.714909 	 2.576566 
H 	 1.341705 	 7.194536 	 3.248075 
H 	 0.716704 	 6.945750 	 4.655869 
H 	 -5.993004 	 4.232382 	 0.806951 
H 	 -5.302744 	 4.991927 	 -0.394652 
H 	 6.489438 	 1.280693 	 2.309417 
H 	 6.990184 	 1.822927 	 3.743297 
H 	 1.041728 	 7.123899 	 -0.392235 
H 	 1.310343 	 6.451306 	 -1.688048 
H 	 -0.579958 	 -3.785685 	 1.871134 
H 	 -1.561223 	 -3.891119 	 0.715271 
H 	 -3.977266 	 6.610442 	 6.434912 
H 	 -3.753361 	 6.237081 	 4.871712 
H 	 -3.262023 	 6.659646 	 -0.727158 
H 	 -3.147204 	 5.925831 	 -2.177110 
H 	 -2.353201 	 7.272091 	 -3.274399 
H 	 -3.208670 	 -6.313562 	 -3.205154 
H 	 -6.968352 	 -7.407137 	 -1.518792 
H 	 -5.579581 	 6.846014 	 -1.865060 
H 	 3.127990 	 0.159656 	 3.116834 
H 	 2.614426 	 1.542578 	 2.702863 
H 	 6.601288 	 4.867562 	 -2.121277 
H 	 5.420178 	 4.193450 	 -2.927641 
H 	 0.869325 	 -1.614219 	 -0.081621 
H 	 0.743009 	 -3.156851 	 0.016277 
H 	 0.076696 	 2.829994 	 3.840208 
H 	 -1.205783 	 3.714399 	 3.948813 
H 	 2.272640 	 -1.883718 	 3.743587 
H 	 2.164864 	 -1.825697 	 2.169818 
H 	 -6.346428 	 -2.458367 	 -4.132011 
H 	 -4.898928 	 -3.095031 	 -4.083675 
H 	 5.867771 	 -2.612084 	 6.436569 
H 	 5.779567 	 -1.867765 	 5.019383 
H 	 -2.571299 	 -1.981472 	 0.125981 
H 	 -3.400907 	 -3.213345 	 -0.054992 
H 	 -6.954428 	 2.105718 	 -3.848027 
H 	 -6.194165 	 1.071808 	 -3.102807 
H 	 -0.440504 	 5.373287 	 6.003441 
H 	 -2.036108 	 5.473589 	 5.938844 
H 	 -3.209016 	 1.637039 	 -5.509456 
H 	 -2.000370 	 2.303761 	 -6.293008 
H 	 -6.028772 	 1.026550 	 4.962029 
H 	 -6.626855 	 2.330176 	 5.604852 
H 	 0.113122 	 5.404185 	 -2.985978 
O 	 6.447791 	 -7.428776 	 7.230410 
O 	 4.128465 	 -6.740392 	 3.253637 
O 	 1.552338 	 5.304952 	 6.401772 
O 	 -0.743559 	 -3.447571 	 -2.484962 
O 	 0.994202 	 0.011949 	 -1.800474 
O 	 3.865127 	 -4.223032 	 4.726699 
O 	 -7.104724 	 -3.849333 	 3.166114 
O 	 -6.630805 	 -4.809659 	 6.287971 
O 	 -6.537485 	 -0.659076 	 1.690647 
O 	 -3.039328 	 -6.713072 	 0.865547 
O 	 4.142799 	 6.168574 	 5.422475 
O 	 6.294930 	 4.230324 	 5.490996 
O 	 -5.319807 	 7.078360 	 -7.228771 
O 	 -2.498919 	 4.195268 	 -3.458136 
O 	 -1.220223 	 -4.278315 	 -5.103648 
O 	 -5.912463 	 5.476631 	 -4.639357 
O 	 -2.612286 	 -6.509544 	 -6.376525 
O 	 5.471888 	 -4.454147 	 7.127316 
O 	 -1.844708 	 2.642289 	 -1.056616 
O 	 6.370054 	 2.665411 	 0.340134 
O 	 6.700158 	 -3.691999 	 -1.090819 
O 	 1.813562 	 -2.071692 	 -3.371465 
O 	 2.249571 	 3.397359 	 -2.476230 
O 	 -4.900910 	 -2.897715 	 1.127989 
O 	 1.750301 	 -4.300961 	 -6.564635 
O 	 4.972390 	 1.989833 	 5.860549 
O 	 7.178783 	 -6.311347 	 -0.093567 
O 	 -0.934334 	 -1.721674 	 3.387942 
O 	 -5.169774 	 -0.652645 	 -1.691189 
O 	 -5.997024 	 -1.308642 	 5.126488 
O 	 -0.147615 	 0.482432 	 5.197528 
O 	 3.076539 	 3.770918 	 -6.741680 
O 	 -4.904107 	 2.888028 	 -2.860651 
O 	 -1.363734 	 -2.864883 	 6.216426 
O 	 7.281869 	 -1.540814 	 -4.980409 
O 	 4.066366 	 1.637575 	 -4.595019 
O 	 -3.405386 	 -3.331422 	 3.368848 
O 	 0.823036 	 0.714646 	 1.482659 
O 	 4.262670 	 5.272926 	 -1.069789 
O 	 -6.063687 	 -5.426162 	 -5.975919 
O 	 3.512590 	 1.218890 	 -0.585291 
O 	 5.004127 	 -3.790246 	 -3.386854 
O 	 -4.647936 	 -5.481375 	 -2.068142 
O 	 -3.402123 	 -5.131515 	 6.187065 
O 	 0.403585 	 -0.097348 	 -4.987137 
O 	 -2.533026 	 5.675690 	 -6.473603 
O 	 1.472704 	 -5.015292 	 -2.911028 
O 	 -6.243938 	 3.761092 	 2.345021 
O 	 3.248504 	 -0.644872 	 6.739095 
O 	 0.015442 	 2.429772 	 -6.899117 
O 	 -5.039301 	 0.792733 	 -6.117760 
O 	 -5.896923 	 3.465217 	 7.240262 
O 	 -5.439761 	 -6.562623 	 2.673144 
O 	 -0.489018 	 -7.039753 	 6.582353 
O 	 3.580789 	 6.160516 	 -4.218230 
O 	 0.602644 	 3.469559 	 -0.134870 
O 	 -3.360966 	 2.221188 	 2.826950 
O 	 4.107074 	 -6.422218 	 -1.099506 
O 	 -1.037782 	 -0.565726 	 -7.148734 
O 	 5.706381 	 -1.648961 	 3.312445 
O 	 0.327405 	 -4.440920 	 4.495562 
O 	 -0.519449 	 -6.745684 	 -0.922008 
O 	 1.558451 	 2.706656 	 4.965417 
O 	 -1.067625 	 5.661458 	 1.206126 
O 	 6.569558 	 4.195851 	 -6.024596 
O 	 -1.677835 	 0.102451 	 -2.365732 
O 	 1.441785 	 -2.154462 	 5.692910 
O 	 5.922682 	 6.080607 	 1.813192 
O 	 -4.920824 	 1.719974 	 0.499833 
O 	 -4.620566 	 -2.174333 	 -6.980117 
O 	 -3.343357 	 -0.640527 	 5.572016 
O 	 1.848245 	 -5.900043 	 0.927006 
O 	 5.976928 	 7.033013 	 -4.583214 
O 	 0.513116 	 4.940060 	 -5.714921 
O 	 6.224215 	 0.935153 	 -6.303743 
O 	 -2.278116 	 -0.501744 	 0.932310 
O 	 3.015731 	 -7.297791 	 -6.963835 
O 	 -2.819706 	 -1.969661 	 -4.471245 
O 	 -3.176349 	 2.319286 	 6.338384 
O 	 6.879160 	 -0.539366 	 -1.089340 
O 	 3.986872 	 -1.787877 	 -0.512654 
O 	 4.150430 	 3.782579 	 2.346631 
O 	 -3.943578 	 5.435900 	 2.890451 
O 	 5.228289 	 -3.802390 	 1.573074 
O 	 4.429582 	 -0.770583 	 -3.604980 
O 	 3.812398 	 -2.757752 	 -5.772360 
O 	 0.717090 	 -7.002599 	 -4.946525 
O 	 7.313814 	 7.220916 	 3.962515 
O 	 1.903321 	 5.108134 	 2.492983 
O 	 0.854647 	 -7.271751 	 3.960954 
O 	 -6.021137 	 4.353941 	 -0.193629 
O 	 6.227891 	 1.829540 	 3.092182 
O 	 1.775501 	 6.627889 	 -0.861910 
O 	 -0.825774 	 -4.392831 	 1.171493 
O 	 -3.338499 	 6.623357 	 5.674542 
O 	 -3.743868 	 6.293703 	 -1.484432 
O 	 -2.290297 	 -6.656848 	 -3.459930 
O 	 -6.452519 	 7.154245 	 -2.256575 
O 	 2.978841 	 1.062977 	 3.466858 
O 	 6.291910 	 4.049978 	 -2.543292 
O 	 1.316514 	 -2.422958 	 0.233927 
O 	 -0.693383 	 3.182835 	 3.327553 
O 	 2.803043 	 -1.887905 	 2.910451 
O 	 -5.804016 	 -3.175418 	 -3.704043 
O 	 6.027403 	 -1.760077 	 5.988765 
O 	 -2.480964 	 -2.897862 	 -0.246606 
O 	 -6.871559 	 1.140926 	 -3.825823 
O 	 -1.258384 	 4.831632 	 5.885986 
O 	 -2.395686 	 2.194069 	 -5.424157 
O 	 -6.814950 	 1.578040 	 5.061667 
O 	 -0.585058 	 5.991082 	 -3.287302 
K 	 -2.177591 	 -6.064496 	 3.702612 
