333
conformation = 22
H 	 -7.477923 	 -7.423898 	 -7.721154 
H 	 6.570316 	 -6.154324 	 6.772717 
H 	 3.363593 	 7.375742 	 3.510827 
H 	 4.550706 	 7.292863 	 2.444452 
H 	 1.762442 	 5.337496 	 6.724994 
H 	 2.837946 	 5.354231 	 5.623006 
H 	 -0.476947 	 -3.785460 	 -2.370206 
H 	 -1.953411 	 -3.519692 	 -2.057109 
H 	 -0.611218 	 -0.022626 	 -1.627085 
H 	 0.662194 	 -0.748864 	 -2.022547 
H 	 4.112089 	 -5.365238 	 4.026265 
H 	 3.910166 	 -3.819798 	 3.988550 
H 	 7.016904 	 -3.839555 	 3.339830 
H 	 -7.384221 	 -5.318985 	 3.259365 
H 	 -5.408269 	 -4.543118 	 6.075203 
H 	 -6.806747 	 -4.307222 	 5.485602 
H 	 -5.795897 	 0.169869 	 1.113660 
H 	 -7.146502 	 -0.580415 	 1.381708 
H 	 -3.825985 	 -6.200812 	 0.196693 
H 	 -2.251333 	 -6.581580 	 0.167525 
H 	 5.003900 	 5.694840 	 5.604704 
H 	 4.457262 	 6.808182 	 6.389194 
H 	 -7.379055 	 4.690213 	 4.818168 
H 	 6.526773 	 3.681593 	 5.248511 
H 	 -5.125512 	 -7.412063 	 -6.970895 
H 	 -5.436965 	 5.983692 	 -7.034141 
H 	 -1.806107 	 4.983107 	 -3.673906 
H 	 -2.390980 	 3.858158 	 -4.458599 
H 	 -0.433155 	 -3.595750 	 -4.648678 
H 	 0.220035 	 -4.079124 	 -5.962265 
H 	 -5.335292 	 5.768753 	 -4.099682 
H 	 -5.672639 	 4.356674 	 -4.473793 
H 	 -2.335471 	 -6.873378 	 -6.193046 
H 	 -1.874922 	 -5.407367 	 -5.993510 
H 	 4.830332 	 -4.118505 	 -7.293580 
H 	 4.749996 	 -4.433381 	 6.062835 
H 	 -1.866834 	 3.380213 	 -2.290739 
H 	 -2.208591 	 1.859765 	 -1.909908 
H 	 6.247359 	 2.789086 	 -1.095909 
H 	 5.537383 	 1.525369 	 -0.606324 
H 	 -7.041936 	 -3.544678 	 -2.535841 
H 	 7.344532 	 -4.673476 	 -1.597529 
H 	 2.588996 	 -2.164689 	 -3.252957 
H 	 1.646082 	 -3.435700 	 -3.397833 
H 	 2.777964 	 2.735235 	 -3.240591 
H 	 3.508971 	 3.611502 	 -2.179157 
H 	 -6.203500 	 -3.629263 	 1.338540 
H 	 -5.773910 	 -2.166708 	 1.361755 
H 	 2.244127 	 -4.510533 	 -7.008338 
H 	 1.187236 	 -3.703210 	 7.168155 
H 	 3.583800 	 2.655235 	 6.008663 
H 	 4.527889 	 2.025664 	 4.822697 
H 	 6.255726 	 -5.826910 	 0.930040 
H 	 -7.176930 	 -6.388519 	 1.378666 
H 	 -1.657184 	 -2.249003 	 3.787259 
H 	 -0.179752 	 -2.296782 	 4.291783 
H 	 -5.202791 	 -1.275581 	 -2.270004 
H 	 -4.659934 	 -0.125030 	 -1.430385 
H 	 -7.139121 	 -1.631431 	 4.215738 
H 	 -7.431231 	 -1.477555 	 5.762055 
H 	 0.200619 	 0.920883 	 5.410705 
H 	 -0.697393 	 -0.144044 	 4.816008 
H 	 3.368857 	 4.792017 	 -5.897255 
H 	 4.635414 	 4.245698 	 -6.645611 
H 	 -5.803729 	 3.377504 	 -2.363830 
H 	 -4.275994 	 3.504889 	 -2.795933 
H 	 -1.738858 	 -2.283019 	 -7.591187 
H 	 -1.327711 	 -3.714748 	 -7.206147 
H 	 6.633212 	 -1.566761 	 -5.531097 
H 	 6.911512 	 -1.023315 	 -4.114427 
H 	 3.577699 	 2.523217 	 -5.371047 
H 	 4.584122 	 1.487095 	 -5.388688 
H 	 -3.941909 	 -3.170348 	 3.003137 
H 	 -3.866220 	 -1.998764 	 4.099635 
H 	 0.273188 	 1.235102 	 1.063823 
H 	 -0.699415 	 0.216048 	 1.683324 
H 	 4.203070 	 5.800274 	 -0.087081 
H 	 2.955733 	 5.845117 	 -0.998577 
H 	 -5.630887 	 -4.742747 	 -4.810986 
H 	 -6.560412 	 -5.011501 	 -5.973905 
H 	 3.282887 	 0.214348 	 -0.357627 
H 	 2.936700 	 1.474439 	 -1.206175 
H 	 5.269064 	 -3.632345 	 -3.852929 
H 	 4.859319 	 -4.479626 	 -2.618669 
H 	 -5.021402 	 -4.529637 	 -1.430572 
H 	 -5.416009 	 -5.954193 	 -1.837846 
H 	 -3.098390 	 -5.298963 	 6.272443 
H 	 -3.235462 	 -3.864748 	 5.715833 
H 	 0.370460 	 0.351213 	 -4.168750 
H 	 1.068070 	 -1.050624 	 -4.435377 
H 	 -1.458587 	 5.637331 	 -6.079052 
H 	 -2.841248 	 5.265965 	 -5.524264 
H 	 1.460456 	 -5.933254 	 -3.267708 
H 	 2.804764 	 -5.049517 	 -3.211061 
H 	 -6.393553 	 4.833650 	 2.567031 
H 	 -5.386876 	 3.767099 	 3.020096 
H 	 3.479956 	 0.484014 	 6.264382 
H 	 4.258819 	 -0.724417 	 6.789608 
H 	 0.227243 	 3.662855 	 -6.633605 
H 	 0.663631 	 2.547571 	 -7.622071 
H 	 -5.932765 	 1.222074 	 -5.122903 
H 	 -5.505385 	 0.272471 	 -6.156446 
H 	 -5.099357 	 3.398915 	 6.700063 
H 	 -5.750278 	 2.334254 	 -7.412383 
H 	 -4.886535 	 -5.729383 	 2.772132 
H 	 -5.787055 	 -6.820055 	 3.389907 
H 	 -0.144301 	 6.765478 	 6.495813 
H 	 -1.039814 	 -6.974670 	 7.024140 
H 	 3.824426 	 6.239226 	 -4.218337 
H 	 2.821567 	 5.042699 	 -3.987003 
H 	 -0.132625 	 2.841312 	 -0.447984 
H 	 1.294229 	 3.345186 	 -0.280948 
H 	 -2.394898 	 2.091949 	 3.397540 
H 	 -3.779425 	 2.337993 	 3.879460 
H 	 3.610853 	 -5.584752 	 -0.971882 
H 	 4.327397 	 -6.915962 	 -0.979959 
H 	 -0.933352 	 -0.107416 	 6.956794 
H 	 -0.559426 	 -0.474116 	 -6.375526 
H 	 4.353227 	 -1.606324 	 3.271694 
H 	 5.249308 	 -0.358388 	 3.473043 
H 	 0.751180 	 -4.185195 	 5.301804 
H 	 0.711263 	 -5.493486 	 4.645057 
H 	 -0.493981 	 -5.744233 	 -0.554245 
H 	 -1.146986 	 -6.487304 	 -1.781195 
H 	 1.603195 	 3.353743 	 5.534453 
H 	 2.289400 	 2.082739 	 4.713427 
H 	 -1.201453 	 5.740516 	 0.594138 
H 	 -0.811556 	 4.669791 	 1.623163 
H 	 7.169988 	 4.579961 	 -6.546563 
H 	 6.344849 	 5.349073 	 -5.492179 
H 	 -3.034138 	 -0.511383 	 -3.308187 
H 	 -2.433418 	 -1.013675 	 -2.021296 
H 	 2.144904 	 -1.526197 	 6.160948 
H 	 0.671244 	 -1.553319 	 6.635222 
H 	 6.181404 	 6.402589 	 0.840008 
H 	 5.633059 	 5.130812 	 1.519151 
H 	 -4.366205 	 1.920485 	 1.134501 
H 	 -4.512302 	 2.058989 	 -0.346097 
H 	 -5.784212 	 -2.628757 	 7.010320 
H 	 -4.421662 	 -2.876783 	 -7.221525 
H 	 -4.056231 	 0.203193 	 4.637447 
H 	 -4.295568 	 -0.544627 	 5.915732 
H 	 1.549862 	 -5.506006 	 1.262965 
H 	 2.561667 	 -6.495753 	 1.736593 
H 	 6.911746 	 7.244489 	 -3.779973 
H 	 6.499167 	 -7.278595 	 -5.218635 
H 	 1.037886 	 6.228651 	 -5.982046 
H 	 0.309852 	 5.378934 	 -4.943141 
H 	 5.494287 	 1.092332 	 -7.669623 
H 	 6.179347 	 2.249624 	 -6.872273 
H 	 -3.036747 	 0.171751 	 1.189844 
H 	 -2.595066 	 -0.600820 	 2.437520 
H 	 2.957364 	 -6.394785 	 -6.293519 
H 	 2.166064 	 -6.823307 	 -7.588791 
H 	 -2.327792 	 -2.498076 	 -4.312409 
H 	 -2.983676 	 -1.894766 	 -5.537943 
H 	 -2.720249 	 3.360368 	 5.862532 
H 	 -2.760103 	 1.743180 	 5.923374 
H 	 -7.255194 	 -0.802784 	 -0.887222 
H 	 6.539447 	 -1.808237 	 -0.832470 
H 	 2.828643 	 -2.211567 	 -0.308844 
H 	 4.247786 	 -2.263057 	 -1.117298 
H 	 5.077372 	 3.064020 	 1.124718 
H 	 5.339672 	 3.311103 	 2.567884 
H 	 -3.890615 	 6.086088 	 2.071286 
H 	 -2.800640 	 5.044126 	 2.399924 
H 	 4.225963 	 -4.620057 	 1.483456 
H 	 4.976865 	 -3.368361 	 1.149438 
H 	 5.015182 	 -0.977328 	 -4.098384 
H 	 3.838303 	 0.049748 	 -3.949568 
H 	 3.171114 	 -2.132148 	 -6.710382 
H 	 3.872619 	 -2.718988 	 -5.491347 
H 	 0.203956 	 7.239620 	 -3.815175 
H 	 -0.090256 	 -6.365006 	 -4.720941 
H 	 7.173971 	 -6.846167 	 4.909096 
H 	 6.237823 	 -6.970928 	 3.712802 
H 	 1.308491 	 4.506389 	 1.769604 
H 	 2.716135 	 4.792366 	 2.392804 
H 	 0.791500 	 7.089224 	 2.868863 
H 	 0.950922 	 6.670137 	 4.307333 
H 	 -6.687363 	 4.519492 	 0.447935 
H 	 -5.323346 	 5.090288 	 -0.101558 
H 	 6.891807 	 1.750380 	 1.993045 
H 	 7.206235 	 1.712281 	 3.462037 
H 	 0.421212 	 7.235521 	 -0.659123 
H 	 0.754437 	 6.117437 	 -1.680410 
H 	 -0.457374 	 -3.850844 	 2.574801 
H 	 -1.654176 	 -3.824789 	 1.632966 
H 	 -4.279647 	 6.537344 	 5.792617 
H 	 -3.637596 	 6.004729 	 4.513078 
H 	 -3.232093 	 6.623046 	 -0.274603 
H 	 -3.097567 	 5.766204 	 -1.566473 
H 	 -2.303553 	 7.317583 	 -3.414261 
H 	 -2.990977 	 -6.310547 	 -2.906104 
H 	 7.331759 	 -6.994750 	 -1.000674 
H 	 -6.661620 	 6.737285 	 -1.501612 
H 	 2.683242 	 0.247933 	 2.855977 
H 	 3.608929 	 1.457473 	 2.469760 
H 	 6.404111 	 4.928929 	 -2.256205 
H 	 5.888374 	 4.218040 	 -3.482259 
H 	 0.407530 	 -1.461091 	 0.320987 
H 	 0.330249 	 -3.016157 	 0.738044 
H 	 -0.122290 	 2.831942 	 3.418137 
H 	 -0.972689 	 3.829190 	 4.183535 
H 	 1.836200 	 -1.705475 	 3.909109 
H 	 1.620127 	 -2.187928 	 2.389627 
H 	 -6.070736 	 -2.232439 	 -4.008704 
H 	 -4.600090 	 -2.599859 	 -4.130132 
H 	 5.798960 	 -2.532836 	 6.655107 
H 	 5.411178 	 -1.692328 	 5.409547 
H 	 -2.579692 	 -2.123472 	 0.220126 
H 	 -3.874774 	 -2.855131 	 -0.278484 
H 	 6.982083 	 1.137674 	 -3.255203 
H 	 -6.594670 	 0.353640 	 -2.950626 
H 	 -0.886581 	 4.283589 	 6.532509 
H 	 -1.983288 	 5.254607 	 6.076868 
H 	 -3.245882 	 1.448937 	 -5.036544 
H 	 -2.056679 	 1.775433 	 -5.904515 
H 	 -6.357897 	 0.304829 	 4.941277 
H 	 -6.182323 	 1.731177 	 5.577766 
H 	 0.347239 	 4.808393 	 -2.781069 
O 	 6.620728 	 -7.141960 	 6.667954 
O 	 3.858477 	 -7.025551 	 2.801826 
O 	 1.875232 	 5.176211 	 5.776135 
O 	 -1.205645 	 -3.143491 	 -2.559087 
O 	 0.298219 	 -0.162244 	 -1.318117 
O 	 3.776654 	 -4.597752 	 4.554451 
O 	 -7.068173 	 -4.374665 	 3.318307 
O 	 -6.400314 	 -4.639575 	 6.317006 
O 	 -6.257813 	 -0.395847 	 1.775226 
O 	 -3.086049 	 -6.670760 	 0.684438 
O 	 4.328205 	 6.380146 	 5.531762 
O 	 6.573360 	 4.509903 	 4.724256 
O 	 -5.690147 	 6.814279 	 -7.446134 
O 	 -2.704622 	 4.458174 	 -3.742944 
O 	 -0.622915 	 -4.087260 	 -5.461596 
O 	 -5.804490 	 5.266476 	 -4.822261 
O 	 -2.454754 	 -5.946400 	 -6.572999 
O 	 5.366371 	 -4.377617 	 6.811871 
O 	 -1.646960 	 2.640983 	 -1.694468 
O 	 6.075322 	 2.285945 	 -0.283103 
O 	 -7.443170 	 -3.714941 	 -1.653614 
O 	 1.641655 	 -2.438048 	 -3.257032 
O 	 2.624648 	 3.408276 	 -2.542439 
O 	 -5.375235 	 -3.092422 	 1.293648 
O 	 1.284637 	 -4.521715 	 -7.219678 
O 	 4.443326 	 2.195781 	 5.787722 
O 	 7.165831 	 -6.056071 	 0.642147 
O 	 -0.733309 	 -1.944780 	 3.565254 
O 	 -5.513215 	 -0.543619 	 -1.677364 
O 	 -6.706489 	 -1.644804 	 5.100135 
O 	 -0.753064 	 0.701283 	 5.322049 
O 	 3.682891 	 3.998533 	 -6.449929 
O 	 -5.059720 	 2.894905 	 -2.763800 
O 	 -1.813249 	 -3.226748 	 7.003171 
O 	 6.594350 	 -1.845014 	 -4.600604 
O 	 4.068693 	 1.937778 	 -4.686413 
O 	 -3.342558 	 -2.730133 	 3.676807 
O 	 0.175902 	 0.630529 	 1.812196 
O 	 3.901072 	 5.545598 	 -1.003458 
O 	 -5.830260 	 -5.438502 	 -5.468635 
O 	 3.415172 	 1.181381 	 -0.389339 
O 	 4.634900 	 -4.376667 	 -3.582119 
O 	 -4.602027 	 -5.394912 	 -1.699435 
O 	 -3.628334 	 -4.752756 	 5.653586 
O 	 0.644911 	 -0.265500 	 -4.899243 
O 	 -2.432933 	 5.829152 	 -6.211400 
O 	 1.868595 	 -5.089685 	 -2.971230 
O 	 -6.360567 	 3.902051 	 2.832685 
O 	 3.338122 	 -0.368058 	 6.724966 
O 	 -0.126597 	 2.879654 	 -7.139369 
O 	 -5.353496 	 1.234079 	 -5.944259 
O 	 -5.976106 	 3.173569 	 7.061541 
O 	 -5.067476 	 -6.684090 	 2.700517 
O 	 -0.248434 	 -7.148984 	 6.506599 
O 	 2.962470 	 5.862536 	 -4.496651 
O 	 0.553537 	 3.029304 	 0.256623 
O 	 -3.344368 	 1.869315 	 3.132481 
O 	 4.517292 	 -5.958960 	 -0.968305 
O 	 -1.226657 	 -0.512011 	 -7.089461 
O 	 5.206817 	 -1.319053 	 3.667785 
O 	 0.351562 	 -4.594225 	 4.507960 
O 	 -0.920027 	 -6.589617 	 -0.819373 
O 	 1.833905 	 2.372328 	 5.523332 
O 	 -1.259009 	 5.535474 	 1.549809 
O 	 6.262234 	 4.813053 	 -6.292491 
O 	 -3.045245 	 -0.302352 	 -2.343905 
O 	 1.315763 	 -2.097731 	 6.149360 
O 	 5.505936 	 6.098791 	 1.448706 
O 	 -4.498126 	 1.358281 	 0.345751 
O 	 -5.103478 	 -2.219550 	 -7.339643 
O 	 -3.590596 	 -0.380930 	 5.252461 
O 	 1.914695 	 -6.382772 	 1.004372 
O 	 6.157458 	 7.196260 	 -4.430289 
O 	 0.504077 	 5.391336 	 -5.946027 
O 	 6.098346 	 1.280479 	 -6.904572 
O 	 -2.418020 	 -0.535093 	 1.484748 
O 	 3.047251 	 -6.774599 	 -7.173564 
O 	 -3.137415 	 -1.989107 	 -4.582020 
O 	 -3.247007 	 2.572447 	 6.146811 
O 	 6.673210 	 -0.848112 	 -0.622394 
O 	 3.812679 	 -2.299609 	 -0.239503 
O 	 4.648621 	 3.473833 	 1.912093 
O 	 -3.670331 	 5.365077 	 2.685254 
O 	 5.137255 	 -4.319684 	 1.359971 
O 	 4.266731 	 -0.743164 	 -3.524080 
O 	 3.651729 	 -2.916078 	 -6.428501 
O 	 0.554270 	 -7.035503 	 -4.474748 
O 	 7.177419 	 -6.847924 	 3.915013 
O 	 1.755578 	 5.036400 	 2.464187 
O 	 0.878447 	 -7.405443 	 3.764938 
O 	 -6.271666 	 4.948841 	 -0.323477 
O 	 6.513347 	 1.445828 	 2.852832 
O 	 1.117520 	 6.598122 	 -0.881758 
O 	 -0.759854 	 -4.220000 	 1.716763 
O 	 -3.514771 	 6.690915 	 5.210462 
O 	 -3.545276 	 5.788369 	 -0.695957 
O 	 -2.171162 	 -6.621225 	 -3.248414 
O 	 -7.341897 	 7.331118 	 -1.821861 
O 	 3.408499 	 0.823983 	 3.212185 
O 	 6.348099 	 4.027285 	 -2.636266 
O 	 0.955769 	 -2.296597 	 0.439260 
O 	 -0.978581 	 3.282146 	 3.348073 
O 	 2.305145 	 -2.003493 	 3.097565 
O 	 -5.393966 	 -2.822870 	 -3.591748 
O 	 5.795636 	 -1.570819 	 6.342357 
O 	 -2.878052 	 -2.843018 	 -0.365245 
O 	 -7.289901 	 0.526967 	 -3.646677 
O 	 -1.164561 	 4.845427 	 5.769454 
O 	 -2.307227 	 1.809829 	 -4.962629 
O 	 -6.140401 	 1.258112 	 4.691347 
O 	 -0.257097 	 5.454234 	 -3.174635 
K 	 -2.120170 	 -6.447522 	 3.679770 
