333
conformation = 5
H 	 -7.545234 	 -7.244621 	 -7.713545 
H 	 6.694008 	 -5.798348 	 7.032352 
H 	 3.422840 	 7.596114 	 3.836019 
H 	 3.763811 	 7.091430 	 2.396460 
H 	 1.272658 	 5.199045 	 6.237383 
H 	 2.424525 	 5.558206 	 5.216742 
H 	 -0.937965 	 -2.831265 	 -2.951942 
H 	 -1.834015 	 -3.444012 	 -1.818622 
H 	 -1.310586 	 0.495218 	 -1.549487 
H 	 -0.126621 	 -0.403752 	 -1.859924 
H 	 3.516119 	 -4.520931 	 3.578914 
H 	 2.377098 	 -4.341661 	 4.633835 
H 	 5.984182 	 -3.211079 	 3.560227 
H 	 6.571691 	 -4.619044 	 3.709122 
H 	 -5.651643 	 -4.604063 	 6.078123 
H 	 -6.971432 	 -3.876781 	 5.696819 
H 	 -5.805721 	 0.188082 	 1.273040 
H 	 -7.161542 	 -0.604975 	 1.333024 
H 	 -3.934923 	 -5.818242 	 0.289965 
H 	 -2.432729 	 -6.280472 	 0.272909 
H 	 4.764333 	 5.992144 	 5.485411 
H 	 4.298966 	 7.159451 	 6.385320 
H 	 6.435933 	 5.725575 	 3.880682 
H 	 6.680316 	 4.283123 	 4.461520 
H 	 -5.440340 	 6.287608 	 -6.817135 
H 	 -6.291773 	 5.959671 	 6.979872 
H 	 -2.120207 	 5.182821 	 -3.412258 
H 	 -3.033461 	 4.111245 	 -4.009473 
H 	 -0.209160 	 -4.118454 	 -4.568735 
H 	 -0.062907 	 -4.060927 	 -6.103684 
H 	 -5.768343 	 5.577819 	 -4.397201 
H 	 -5.408681 	 4.173891 	 -4.642406 
H 	 -2.476118 	 -6.661066 	 -6.941057 
H 	 -1.999559 	 -5.229626 	 -6.273859 
H 	 4.889083 	 -4.972816 	 6.930736 
H 	 4.618769 	 -4.309604 	 5.627240 
H 	 -1.797126 	 3.283360 	 -1.829476 
H 	 -2.671091 	 2.027030 	 -2.297100 
H 	 5.703730 	 2.421631 	 -1.398879 
H 	 6.272580 	 1.212328 	 -0.655960 
H 	 -6.978659 	 -3.304792 	 -2.450749 
H 	 7.001868 	 -4.359217 	 -1.766424 
H 	 1.756421 	 -1.626582 	 -2.948103 
H 	 1.084211 	 -2.868080 	 -2.251644 
H 	 2.475831 	 3.077440 	 -3.105927 
H 	 2.723669 	 4.226194 	 -2.082523 
H 	 -6.337211 	 -3.856902 	 0.954364 
H 	 -6.009266 	 -2.343098 	 1.244804 
H 	 1.674699 	 -4.555823 	 -7.557112 
H 	 0.858911 	 -3.330622 	 6.825328 
H 	 4.438425 	 3.490764 	 5.777640 
H 	 4.545479 	 2.419999 	 4.687563 
H 	 6.591878 	 -5.740952 	 1.393250 
H 	 -6.873350 	 -6.172699 	 1.721063 
H 	 -2.111319 	 -1.811914 	 4.494524 
H 	 -0.662796 	 -1.875652 	 5.095878 
H 	 -5.935649 	 -1.236776 	 -2.197344 
H 	 -5.895583 	 -0.049901 	 -1.240225 
H 	 -7.425039 	 -2.020860 	 4.295882 
H 	 7.290320 	 -1.486740 	 5.698831 
H 	 -0.522393 	 1.504144 	 5.157591 
H 	 -1.301264 	 0.180197 	 4.944383 
H 	 3.063044 	 4.838883 	 -6.693438 
H 	 4.333835 	 4.051699 	 -6.852040 
H 	 -6.146044 	 4.040595 	 -1.932278 
H 	 -5.025889 	 3.005465 	 -2.321550 
H 	 -3.002451 	 -2.249134 	 -7.607307 
H 	 -2.068781 	 -3.442122 	 -7.683483 
H 	 6.486895 	 -2.408781 	 -6.016617 
H 	 6.395872 	 -1.177055 	 -5.088346 
H 	 3.416763 	 2.568230 	 -5.204038 
H 	 4.803236 	 1.832399 	 -5.491558 
H 	 -4.602844 	 -3.015949 	 2.785429 
H 	 -4.816937 	 -1.871276 	 3.824722 
H 	 0.309089 	 0.868066 	 1.653593 
H 	 -0.714798 	 0.039347 	 2.441774 
H 	 4.000454 	 6.125527 	 -0.457443 
H 	 2.488937 	 6.305762 	 -0.916406 
H 	 -6.277026 	 -4.468379 	 -4.564851 
H 	 -6.322531 	 -5.156405 	 -5.951825 
H 	 3.201367 	 -0.140712 	 -0.403788 
H 	 2.930097 	 1.302772 	 -0.687341 
H 	 4.355350 	 -4.553862 	 -4.748899 
H 	 4.948996 	 -5.043471 	 -3.381980 
H 	 -5.536660 	 -4.962286 	 -1.438718 
H 	 -5.715220 	 -6.462238 	 -1.577668 
H 	 -3.379294 	 -5.037580 	 5.893688 
H 	 -3.733653 	 -3.957734 	 4.958402 
H 	 1.253771 	 0.551361 	 -5.057223 
H 	 0.333057 	 -0.511923 	 -4.520469 
H 	 -1.909163 	 6.093964 	 -6.171565 
H 	 -3.451712 	 6.207752 	 -5.788361 
H 	 1.386052 	 -5.897149 	 -3.039705 
H 	 2.449370 	 -4.752868 	 -2.961929 
H 	 -7.386786 	 4.156632 	 2.114888 
H 	 -5.877353 	 4.819846 	 2.334418 
H 	 2.900161 	 0.852567 	 7.095693 
H 	 3.751319 	 -0.418089 	 7.170817 
H 	 -0.092993 	 3.747327 	 -6.465951 
H 	 0.310722 	 2.683759 	 -7.574784 
H 	 -6.175696 	 1.325072 	 -4.684681 
H 	 -5.639077 	 0.354976 	 -5.797054 
H 	 -5.425795 	 3.501069 	 6.596785 
H 	 -6.287641 	 3.138985 	 -7.087812 
H 	 -5.252563 	 -5.697942 	 3.436987 
H 	 -6.341477 	 -6.829777 	 3.625685 
H 	 -0.467145 	 7.010871 	 6.287043 
H 	 -0.948602 	 -6.571132 	 6.901208 
H 	 3.346070 	 6.549264 	 -3.616418 
H 	 1.898909 	 6.115013 	 -3.813068 
H 	 -0.171967 	 2.310742 	 0.257893 
H 	 0.772898 	 3.405009 	 -0.382045 
H 	 -3.382746 	 2.508415 	 3.248894 
H 	 -4.753391 	 1.978954 	 3.730839 
H 	 3.299744 	 -6.038720 	 -1.337764 
H 	 4.634468 	 -6.698958 	 -1.105751 
H 	 -1.945821 	 0.136275 	 7.050176 
H 	 -1.147986 	 0.320757 	 -6.505891 
H 	 4.156062 	 -1.356456 	 3.520322 
H 	 5.395413 	 -0.401063 	 3.494378 
H 	 0.217233 	 -5.202478 	 5.412270 
H 	 0.569941 	 -5.975625 	 4.151446 
H 	 0.111603 	 -5.119680 	 -0.935100 
H 	 -1.178720 	 -5.500428 	 -1.637125 
H 	 1.307888 	 3.239589 	 5.095220 
H 	 1.547983 	 1.889588 	 4.345183 
H 	 -0.912315 	 5.948208 	 0.918871 
H 	 -1.265908 	 4.889744 	 1.934064 
H 	 7.251240 	 5.096719 	 -6.763674 
H 	 6.251926 	 6.216391 	 -6.590498 
H 	 -3.174018 	 -0.762196 	 -2.663127 
H 	 -3.588157 	 -1.042689 	 -1.178303 
H 	 1.328513 	 -0.999644 	 6.447895 
H 	 -0.160091 	 -1.155582 	 7.070231 
H 	 6.336749 	 6.485761 	 1.007773 
H 	 5.482114 	 5.194668 	 1.189303 
H 	 -4.001340 	 2.397586 	 1.150520 
H 	 -3.351838 	 2.038439 	 -0.172828 
H 	 -5.917009 	 -2.349453 	 -7.659947 
H 	 -4.732451 	 -2.099515 	 -6.790666 
H 	 -4.593664 	 0.093098 	 5.472600 
H 	 -4.289269 	 -1.068320 	 6.289444 
H 	 0.389408 	 -5.866181 	 0.890007 
H 	 1.630856 	 -6.278207 	 1.669649 
H 	 6.436641 	 -6.909383 	 -3.679193 
H 	 6.506615 	 -6.926501 	 -5.183078 
H 	 0.261313 	 6.353694 	 -6.008262 
H 	 -0.212297 	 5.312677 	 -4.844323 
H 	 5.927457 	 0.724918 	 -7.194612 
H 	 6.085568 	 2.207748 	 -7.532714 
H 	 -3.242871 	 0.324090 	 1.336020 
H 	 -3.197155 	 -0.736772 	 2.466204 
H 	 2.856152 	 -6.851389 	 -6.364356 
H 	 1.940028 	 -6.619765 	 -7.632115 
H 	 -2.552547 	 -2.529754 	 -4.828323 
H 	 -2.478649 	 -1.253083 	 -5.735742 
H 	 -3.002917 	 3.729058 	 5.677628 
H 	 -3.148681 	 2.225592 	 5.701334 
H 	 6.322071 	 -1.270316 	 -0.298312 
H 	 5.198515 	 -1.117707 	 0.754926 
H 	 2.413731 	 -2.285987 	 -0.120930 
H 	 3.742599 	 -2.804485 	 -0.838791 
H 	 4.685881 	 2.861496 	 0.889420 
H 	 4.811139 	 2.968965 	 2.416925 
H 	 -4.508029 	 6.670440 	 2.162225 
H 	 -3.421211 	 5.587208 	 1.915543 
H 	 4.380016 	 -5.344799 	 1.573923 
H 	 4.600123 	 -4.032402 	 0.884277 
H 	 3.911311 	 -1.160595 	 -3.160222 
H 	 3.501842 	 0.286576 	 -3.473205 
H 	 2.436235 	 -2.270125 	 -5.460977 
H 	 3.313445 	 -2.268695 	 -6.801804 
H 	 -0.134993 	 7.350863 	 -3.928715 
H 	 -0.870676 	 -6.257310 	 -4.150524 
H 	 6.436982 	 -6.927159 	 4.825681 
H 	 5.506398 	 -6.947928 	 3.583537 
H 	 1.565802 	 4.155252 	 1.774811 
H 	 2.979072 	 4.611269 	 2.091113 
H 	 0.147522 	 6.455628 	 2.598236 
H 	 0.581033 	 6.535256 	 4.069366 
H 	 -7.475237 	 3.940547 	 -0.186818 
H 	 -6.160700 	 4.647791 	 0.152682 
H 	 6.412463 	 1.225953 	 1.825027 
H 	 6.967552 	 1.415150 	 3.249434 
H 	 0.284430 	 6.880654 	 -1.278187 
H 	 0.242911 	 5.585616 	 -1.910667 
H 	 -1.106458 	 -3.532319 	 2.541238 
H 	 -2.053215 	 -3.838304 	 1.337900 
H 	 -4.463693 	 6.699414 	 6.089402 
H 	 -4.302657 	 6.236408 	 4.602300 
H 	 -3.325925 	 6.324219 	 -0.220863 
H 	 -3.400630 	 5.514347 	 -1.507873 
H 	 -2.890090 	 7.383372 	 -3.368577 
H 	 -3.627891 	 -6.286159 	 -2.856031 
H 	 6.915216 	 -6.752235 	 -0.764217 
H 	 7.222666 	 6.841546 	 -1.384595 
H 	 2.433042 	 0.524415 	 2.752381 
H 	 2.903300 	 1.706371 	 2.026984 
H 	 5.813522 	 4.648013 	 -3.554933 
H 	 7.217548 	 4.240848 	 -3.892217 
H 	 -0.078885 	 -1.833218 	 0.141595 
H 	 0.217842 	 -3.253607 	 0.819343 
H 	 -0.985981 	 2.490031 	 2.923552 
H 	 -1.124953 	 3.656423 	 3.899772 
H 	 1.521082 	 -1.178259 	 3.770516 
H 	 1.770553 	 -2.313048 	 2.785911 
H 	 -6.400442 	 -2.183628 	 -4.744570 
H 	 -4.926594 	 -2.096160 	 -4.187679 
H 	 5.244143 	 -2.431210 	 6.727993 
H 	 5.244013 	 -1.272844 	 5.666563 
H 	 -3.005272 	 -2.068648 	 0.597542 
H 	 -4.084971 	 -3.083800 	 0.315327 
H 	 6.541775 	 1.610174 	 -3.643670 
H 	 7.291769 	 0.346205 	 -3.064588 
H 	 -1.550863 	 4.772090 	 6.889525 
H 	 -2.452820 	 5.515287 	 5.861934 
H 	 -3.489187 	 1.298193 	 -4.866860 
H 	 -2.195155 	 1.850564 	 -5.453670 
H 	 -6.425354 	 0.251144 	 4.534153 
H 	 -6.552081 	 1.549431 	 5.377877 
H 	 0.439909 	 4.260350 	 -3.407457 
O 	 6.602919 	 -6.755333 	 6.807754 
O 	 3.783481 	 -7.027017 	 2.968477 
O 	 1.469396 	 5.362823 	 5.285234 
O 	 -1.853745 	 -2.909923 	 -2.650281 
O 	 -0.527279 	 0.095581 	 -1.127899 
O 	 3.328213 	 -4.559803 	 4.515975 
O 	 6.837651 	 -3.686991 	 3.502743 
O 	 -6.476626 	 -4.238247 	 6.470683 
O 	 -6.256211 	 -0.545389 	 1.718412 
O 	 -3.304383 	 -6.479923 	 0.701414 
O 	 4.116838 	 6.705836 	 5.535316 
O 	 6.128202 	 5.060770 	 4.515648 
O 	 -5.766551 	 6.708577 	 -7.603888 
O 	 -3.125748 	 5.008213 	 -3.585938 
O 	 -0.708922 	 -3.838942 	 -5.356366 
O 	 -5.856540 	 4.915879 	 -5.107746 
O 	 -2.435369 	 -5.651505 	 -7.032377 
O 	 5.249500 	 -4.254322 	 6.406215 
O 	 -2.209765 	 2.451049 	 -1.573508 
O 	 6.215762 	 2.188267 	 -0.585223 
O 	 -7.082731 	 -3.827646 	 -1.635006 
O 	 1.012623 	 -2.255866 	 -3.002137 
O 	 2.268783 	 3.350911 	 -2.199192 
O 	 -5.659957 	 -3.244520 	 1.276570 
O 	 0.793165 	 -4.276772 	 7.076098 
O 	 4.972291 	 2.734687 	 5.503463 
O 	 -7.482439 	 -5.983720 	 0.964781 
O 	 -1.166609 	 -1.840376 	 4.237793 
O 	 -6.512495 	 -0.647534 	 -1.700641 
O 	 -6.958369 	 -1.468885 	 4.951558 
O 	 -1.381894 	 1.047396 	 5.384934 
O 	 3.360681 	 3.985848 	 -7.075119 
O 	 -5.806800 	 3.465162 	 -2.651603 
O 	 -2.842322 	 -3.049445 	 6.790917 
O 	 6.491014 	 -2.160657 	 -5.070627 
O 	 4.041266 	 1.891089 	 -4.888320 
O 	 -4.153649 	 -2.484243 	 3.496960 
O 	 -0.032718 	 0.742164 	 2.558412 
O 	 3.412035 	 6.283418 	 -1.254515 
O 	 -6.324019 	 -5.350857 	 -4.999871 
O 	 3.073512 	 0.721727 	 0.078327 
O 	 4.420172 	 -4.343398 	 -3.819117 
O 	 -5.040376 	 -5.788108 	 -1.401013 
O 	 -3.608100 	 -4.924062 	 4.946281 
O 	 0.528033 	 -0.021161 	 -5.340677 
O 	 -2.817966 	 6.403468 	 -6.508236 
O 	 1.815859 	 -5.285572 	 -2.422416 
O 	 -6.682644 	 4.410620 	 2.745993 
O 	 2.839560 	 -0.109548 	 -7.506255 
O 	 -0.401949 	 2.957251 	 -6.991237 
O 	 -5.557050 	 1.290072 	 -5.467573 
O 	 -6.349969 	 3.527056 	 6.913160 
O 	 -5.675997 	 -6.477456 	 3.005486 
O 	 -0.163555 	 -6.999143 	 6.497698 
O 	 2.678284 	 6.443101 	 -4.309342 
O 	 0.498664 	 2.965552 	 0.446470 
O 	 -4.140364 	 1.970042 	 2.955682 
O 	 4.245249 	 -5.796193 	 -1.226202 
O 	 -1.544762 	 -0.350930 	 -7.102844 
O 	 5.087225 	 -1.286605 	 3.796482 
O 	 0.266343 	 -5.091692 	 4.442661 
O 	 -0.857559 	 -5.177655 	 -0.779385 
O 	 1.362977 	 2.252482 	 5.250717 
O 	 -1.402373 	 5.863956 	 1.759544 
O 	 6.285661 	 5.248142 	 -6.782039 
O 	 -3.403205 	 -0.321041 	 -1.824148 
O 	 0.530444 	 -1.563818 	 6.474757 
O 	 5.396004 	 6.162235 	 1.070192 
O 	 -4.140999 	 1.833039 	 0.369178 
O 	 -5.541917 	 -1.632290 	 -7.118101 
O 	 -3.911445 	 -0.602345 	 5.537254 
O 	 1.362946 	 -5.826128 	 0.815507 
O 	 5.892949 	 -7.228133 	 -4.422417 
O 	 -0.225052 	 5.539410 	 -5.873367 
O 	 6.179499 	 1.561954 	 -6.797167 
O 	 -2.718800 	 -0.444062 	 1.667398 
O 	 2.881041 	 -6.643674 	 -7.332133 
O 	 -3.067833 	 -1.742293 	 -5.120461 
O 	 -3.713416 	 3.036746 	 5.775112 
O 	 5.968264 	 -0.613950 	 0.387621 
O 	 3.343222 	 -2.035826 	 -0.384435 
O 	 4.730332 	 3.504110 	 1.615752 
O 	 -4.174354 	 5.798841 	 2.496836 
O 	 4.700353 	 -4.436520 	 1.762027 
O 	 3.247129 	 -0.490857 	 -2.900350 
O 	 3.018677 	 -2.800469 	 -6.046128 
O 	 0.007528 	 -6.635391 	 -4.220164 
O 	 6.473409 	 -6.907962 	 3.857026 
O 	 2.065889 	 4.848843 	 2.222052 
O 	 0.267584 	 7.094187 	 3.323361 
O 	 -7.060125 	 4.837035 	 -0.136554 
O 	 6.132760 	 1.320659 	 2.740499 
O 	 0.480901 	 5.944797 	 -1.007314 
O 	 -1.319439 	 -4.222673 	 1.878901 
O 	 -3.805416 	 6.379295 	 5.423404 
O 	 -3.425589 	 5.415188 	 -0.534970 
O 	 -2.794720 	 -6.595948 	 -3.232806 
O 	 6.636019 	 7.640409 	 -1.536469 
O 	 2.742315 	 1.434473 	 2.946798 
O 	 6.500960 	 4.032656 	 -3.246103 
O 	 0.625784 	 -2.369310 	 0.564771 
O 	 -1.406021 	 3.374682 	 3.019482 
O 	 2.207322 	 -1.856222 	 3.553035 
O 	 -5.795296 	 -2.531402 	 -4.050296 
O 	 5.309189 	 -1.446815 	 6.616672 
O 	 -3.240041 	 -2.727473 	 -0.110023 
O 	 6.803312 	 0.670270 	 -3.853913 
O 	 -1.603100 	 5.030462 	 5.951174 
O 	 -2.698151 	 1.837060 	 -4.601492 
O 	 -6.371321 	 1.228507 	 4.484495 
O 	 -0.117505 	 5.057818 	 -3.459274 
K 	 -2.223805 	 -6.635744 	 3.582222 
