333
conformation = 28
H 	 -7.586953 	 -7.271369 	 -7.663879 
H 	 6.176402 	 -6.246248 	 7.048956 
H 	 3.297289 	 -7.074022 	 3.804085 
H 	 4.236685 	 7.308375 	 2.816483 
H 	 2.211585 	 4.819436 	 6.991563 
H 	 2.479732 	 5.693429 	 5.736571 
H 	 -0.279588 	 -3.577615 	 -2.225731 
H 	 -1.506048 	 -2.904842 	 -1.497566 
H 	 -0.438097 	 0.170310 	 -1.886025 
H 	 0.846475 	 -0.730056 	 -1.950031 
H 	 4.128919 	 -5.028616 	 4.028301 
H 	 3.804506 	 -3.600866 	 4.508823 
H 	 7.119755 	 -3.796140 	 2.992078 
H 	 -7.232798 	 -5.021268 	 3.698908 
H 	 -5.843434 	 -4.912808 	 6.214203 
H 	 -6.907828 	 -3.820329 	 6.041869 
H 	 -5.818132 	 0.167498 	 1.333555 
H 	 -7.296844 	 -0.213358 	 1.550218 
H 	 -3.834454 	 -6.175739 	 0.416938 
H 	 -2.373737 	 -6.413883 	 0.392218 
H 	 5.035773 	 5.914197 	 5.531157 
H 	 4.294218 	 6.976263 	 6.466483 
H 	 7.202771 	 4.406514 	 5.789076 
H 	 5.863355 	 3.686872 	 5.334567 
H 	 -5.617459 	 -7.190873 	 -6.546582 
H 	 -5.701141 	 6.146426 	 -6.723012 
H 	 -1.745604 	 5.042902 	 -3.554172 
H 	 -2.629127 	 3.808142 	 -4.169087 
H 	 -0.454788 	 -3.759463 	 -4.360396 
H 	 -0.117642 	 -4.200330 	 -5.844352 
H 	 -5.429940 	 6.120689 	 -4.179123 
H 	 -5.798703 	 4.585986 	 -4.205397 
H 	 -3.192319 	 -6.655968 	 -5.982953 
H 	 -2.338130 	 -5.367120 	 -5.550723 
H 	 4.667831 	 -4.251078 	 -7.115510 
H 	 4.818857 	 -4.488340 	 6.282014 
H 	 -2.159848 	 3.486346 	 -1.861529 
H 	 -2.318472 	 1.981309 	 -1.720410 
H 	 5.800555 	 3.180597 	 -0.598506 
H 	 5.521239 	 1.701834 	 -0.265046 
H 	 -7.044669 	 -3.716012 	 -1.789421 
H 	 7.113829 	 -3.777764 	 -0.445805 
H 	 2.698248 	 -1.849529 	 -3.373012 
H 	 1.760197 	 -3.097182 	 -2.907472 
H 	 3.020403 	 2.773151 	 -2.851357 
H 	 3.170321 	 3.946219 	 -1.797240 
H 	 -5.687155 	 -3.605929 	 2.038307 
H 	 -5.802294 	 -2.163033 	 1.410393 
H 	 1.945194 	 -4.245639 	 -6.207540 
H 	 1.393604 	 -3.658046 	 -7.442100 
H 	 3.643959 	 2.634468 	 6.155499 
H 	 4.121502 	 1.562178 	 5.272829 
H 	 6.330495 	 -5.323970 	 0.806798 
H 	 -7.303969 	 -6.073934 	 1.415740 
H 	 -1.727391 	 -2.222368 	 3.657953 
H 	 -0.453234 	 -1.967874 	 4.525280 
H 	 -5.296606 	 -1.435884 	 -1.846160 
H 	 -4.518747 	 -0.049622 	 -1.745701 
H 	 -6.724700 	 -1.695399 	 4.276634 
H 	 -7.531819 	 -1.614665 	 5.586232 
H 	 -0.505346 	 1.592345 	 5.318053 
H 	 -1.140259 	 0.309727 	 4.737576 
H 	 3.085690 	 4.860272 	 -5.653707 
H 	 4.311701 	 4.355860 	 -6.449983 
H 	 -5.465959 	 3.327184 	 -1.893232 
H 	 -4.190256 	 3.478173 	 -2.676835 
H 	 -1.345996 	 -2.378394 	 -7.121466 
H 	 -0.972994 	 -3.719004 	 7.088436 
H 	 6.616123 	 -1.722023 	 -5.396975 
H 	 6.980637 	 -0.702024 	 -4.286301 
H 	 3.484610 	 2.524764 	 -5.129191 
H 	 4.899675 	 1.716539 	 -4.879509 
H 	 -4.025466 	 -2.436161 	 3.211262 
H 	 -3.548226 	 -2.341690 	 4.639987 
H 	 0.714160 	 1.429443 	 1.540811 
H 	 -0.557600 	 0.577205 	 1.393839 
H 	 4.090049 	 5.547577 	 0.028812 
H 	 2.944832 	 5.892248 	 -0.990260 
H 	 -5.833186 	 -4.731935 	 -4.818338 
H 	 -6.373874 	 -5.042385 	 -6.252354 
H 	 3.426534 	 0.389830 	 -0.561657 
H 	 2.641804 	 1.677605 	 -0.880311 
H 	 5.575182 	 -3.575672 	 -3.015635 
H 	 4.818958 	 -4.844400 	 -2.621969 
H 	 -4.820564 	 -4.680288 	 -2.308806 
H 	 -5.472665 	 -5.769853 	 -1.430818 
H 	 -3.591694 	 -5.243749 	 6.867051 
H 	 -2.902710 	 -4.055080 	 6.328304 
H 	 -0.265431 	 -0.008164 	 -4.118813 
H 	 0.790101 	 -1.146355 	 -4.283754 
H 	 -1.403517 	 5.658914 	 -6.085424 
H 	 -2.665992 	 5.339573 	 -5.107113 
H 	 1.195345 	 -5.724523 	 -3.493060 
H 	 2.557699 	 -5.262801 	 -3.069264 
H 	 -6.357999 	 4.495148 	 3.635353 
H 	 -5.516419 	 3.645129 	 2.706123 
H 	 3.230539 	 0.619360 	 6.816240 
H 	 4.301133 	 -0.491705 	 6.781817 
H 	 0.233791 	 3.567150 	 -6.335021 
H 	 0.542357 	 2.342086 	 -7.258707 
H 	 -5.777883 	 1.183877 	 -4.977225 
H 	 -5.206676 	 0.320761 	 -6.224680 
H 	 -5.113957 	 3.217572 	 6.901556 
H 	 -5.934795 	 2.670150 	 -6.843654 
H 	 -5.309353 	 -5.636955 	 2.780795 
H 	 -5.721043 	 -6.923206 	 3.444345 
H 	 0.028096 	 7.123600 	 7.059358 
H 	 -0.923930 	 -6.650990 	 -7.435705 
H 	 3.911871 	 6.427197 	 -4.030915 
H 	 2.621101 	 5.712353 	 -3.487405 
H 	 -0.319474 	 3.026547 	 -0.327913 
H 	 1.189129 	 3.420194 	 -0.399511 
H 	 -2.647849 	 2.636358 	 3.061973 
H 	 -3.710006 	 2.149579 	 4.148524 
H 	 3.499361 	 -6.208738 	 -0.315115 
H 	 4.504120 	 -6.752244 	 -1.320671 
H 	 -1.093883 	 0.268169 	 -7.606874 
H 	 -0.545815 	 -0.114135 	 -6.239710 
H 	 4.237603 	 -1.166136 	 3.630973 
H 	 5.580842 	 -0.603361 	 3.245308 
H 	 1.052776 	 -3.987642 	 5.197914 
H 	 0.518088 	 -5.314067 	 4.508002 
H 	 -0.318485 	 -5.960614 	 -0.528388 
H 	 -1.478761 	 -6.560959 	 -1.405686 
H 	 1.814295 	 3.551382 	 5.207735 
H 	 1.935520 	 2.125908 	 4.731957 
H 	 -1.027096 	 6.038499 	 0.894468 
H 	 -1.039166 	 4.585960 	 1.507976 
H 	 6.846144 	 4.689144 	 -6.720304 
H 	 6.906787 	 5.082633 	 -5.236798 
H 	 -2.865070 	 -0.306808 	 -3.184692 
H 	 -2.732721 	 -0.931485 	 -1.737284 
H 	 1.920737 	 -1.399498 	 6.375346 
H 	 0.417513 	 -1.727185 	 6.341077 
H 	 6.237938 	 6.183485 	 0.998741 
H 	 5.418119 	 5.273448 	 2.072253 
H 	 -4.232952 	 2.032748 	 1.198295 
H 	 -5.494657 	 1.927160 	 0.265367 
H 	 -5.525416 	 -2.455156 	 7.065151 
H 	 -4.978806 	 -3.109914 	 -6.611376 
H 	 -4.392076 	 0.105330 	 5.193799 
H 	 -3.664893 	 -0.760960 	 6.308394 
H 	 1.261887 	 -5.632363 	 1.618603 
H 	 2.690008 	 -6.328283 	 1.911215 
H 	 6.718134 	 -7.213504 	 -3.802885 
H 	 6.184809 	 7.287081 	 -5.224316 
H 	 0.896058 	 6.260281 	 -5.737855 
H 	 0.143446 	 5.462211 	 -4.628598 
H 	 5.528984 	 1.616107 	 -7.288296 
H 	 6.753301 	 1.919247 	 -6.475172 
H 	 -3.157032 	 0.130370 	 1.388662 
H 	 -2.333674 	 -0.527011 	 2.542261 
H 	 2.661117 	 7.552327 	 -6.125536 
H 	 2.279529 	 -6.165326 	 -6.955837 
H 	 -2.540385 	 -2.621483 	 -3.955832 
H 	 -2.870037 	 -1.791331 	 -5.224165 
H 	 -2.390580 	 2.855007 	 6.288010 
H 	 -3.022830 	 1.494181 	 6.246112 
H 	 -7.263641 	 -0.559360 	 -0.717954 
H 	 6.714592 	 -1.765293 	 -0.922807 
H 	 2.910783 	 -2.545989 	 -0.201523 
H 	 3.988478 	 -1.923570 	 -0.980268 
H 	 4.803447 	 3.181793 	 1.423040 
H 	 5.141085 	 3.111817 	 2.909703 
H 	 -4.206406 	 6.197711 	 2.625923 
H 	 -2.876407 	 5.562463 	 2.431086 
H 	 4.294048 	 -4.659102 	 1.468296 
H 	 4.926803 	 -3.387439 	 0.864633 
H 	 5.032782 	 -1.113457 	 -3.996874 
H 	 3.927212 	 0.016432 	 -3.870857 
H 	 3.650674 	 -1.808682 	 -6.283082 
H 	 3.482714 	 -2.738188 	 -5.072693 
H 	 0.491606 	 7.200372 	 -3.650865 
H 	 -0.357321 	 -6.813526 	 -4.552600 
H 	 6.618123 	 -7.158749 	 4.989811 
H 	 6.787219 	 7.305060 	 3.463428 
H 	 1.242117 	 4.653806 	 1.911036 
H 	 2.591213 	 4.912910 	 2.623526 
H 	 0.967591 	 7.070010 	 3.241721 
H 	 0.542345 	 7.183962 	 4.803691 
H 	 -6.248092 	 4.599176 	 0.805947 
H 	 -5.167787 	 5.358587 	 -0.125588 
H 	 6.822667 	 2.224656 	 2.419553 
H 	 6.967218 	 1.630757 	 3.810191 
H 	 1.616645 	 7.146292 	 -0.085444 
H 	 0.546382 	 6.918250 	 -1.158284 
H 	 -0.783116 	 -3.660099 	 2.459120 
H 	 -1.596089 	 -3.902693 	 1.141146 
H 	 -4.027039 	 6.884843 	 6.386218 
H 	 -4.004801 	 6.137854 	 4.958364 
H 	 -3.491657 	 6.705567 	 -0.199739 
H 	 -3.062006 	 5.530702 	 -1.182987 
H 	 -2.307457 	 7.402378 	 -3.272252 
H 	 -3.183754 	 -6.303123 	 -2.862680 
H 	 7.285577 	 -7.158851 	 -1.113398 
H 	 -6.826554 	 6.445579 	 -1.362286 
H 	 2.613045 	 0.188044 	 3.339666 
H 	 3.545788 	 1.234112 	 2.643648 
H 	 6.329250 	 5.082500 	 -2.524350 
H 	 5.338651 	 3.857748 	 -2.696811 
H 	 0.714973 	 -1.521013 	 0.321261 
H 	 0.312044 	 -2.984787 	 0.826438 
H 	 0.050972 	 3.115386 	 3.519488 
H 	 -0.863171 	 4.071772 	 4.472657 
H 	 1.790384 	 -2.387972 	 3.572864 
H 	 1.868009 	 -1.844038 	 2.157712 
H 	 -6.361042 	 -2.413842 	 -3.891598 
H 	 -4.767779 	 -2.598244 	 -3.860363 
H 	 5.618455 	 -2.450647 	 6.763726 
H 	 5.507133 	 -1.399076 	 5.530017 
H 	 -2.853952 	 -2.040718 	 0.291192 
H 	 -3.663495 	 -3.290616 	 0.064840 
H 	 6.949238 	 1.316605 	 -3.380320 
H 	 -6.820817 	 0.658683 	 -2.600500 
H 	 -0.900647 	 4.745925 	 6.784594 
H 	 -1.875765 	 5.551909 	 5.824269 
H 	 -3.113346 	 2.005887 	 -5.706950 
H 	 -1.575873 	 2.202804 	 -5.370928 
H 	 -6.623732 	 0.620031 	 5.394888 
H 	 -6.402723 	 2.174915 	 5.795634 
H 	 0.115922 	 4.986939 	 -2.755541 
O 	 6.403086 	 -7.180622 	 6.954025 
O 	 3.792074 	 -6.736823 	 3.038794 
O 	 1.770346 	 5.168201 	 6.164702 
O 	 -1.146006 	 -3.199298 	 -2.360549 
O 	 0.414144 	 -0.004001 	 -1.427164 
O 	 3.798989 	 -4.551474 	 4.808326 
O 	 -6.960735 	 -4.090015 	 3.456622 
O 	 -6.732786 	 -4.639005 	 6.549963 
O 	 -6.417055 	 -0.345173 	 1.938738 
O 	 -3.168143 	 -6.641016 	 0.932626 
O 	 4.189295 	 6.281685 	 5.800707 
O 	 6.479603 	 4.414317 	 5.117143 
O 	 -5.536641 	 6.993185 	 -7.224498 
O 	 -2.701016 	 4.524528 	 -3.474404 
O 	 -0.841075 	 -4.084197 	 -5.194412 
O 	 -6.001189 	 5.473885 	 -4.593458 
O 	 -2.578472 	 -5.981462 	 -6.316092 
O 	 5.350306 	 -4.343164 	 7.092980 
O 	 -1.717919 	 2.723200 	 -1.395460 
O 	 6.035108 	 2.474373 	 0.016417 
O 	 6.975920 	 -3.564888 	 -1.406053 
O 	 1.748240 	 -2.153660 	 -3.200478 
O 	 2.531513 	 3.493579 	 -2.375672 
O 	 -5.245799 	 -2.983700 	 1.437205 
O 	 1.270279 	 -4.436054 	 -6.871100 
O 	 4.462412 	 2.078079 	 6.040327 
O 	 7.009897 	 -6.059544 	 0.619713 
O 	 -0.856251 	 -1.713364 	 3.679124 
O 	 -5.366928 	 -0.510531 	 -1.464709 
O 	 -6.649492 	 -1.389103 	 5.184357 
O 	 -0.563523 	 0.644235 	 5.464386 
O 	 3.390572 	 4.080607 	 -6.209360 
O 	 -4.943530 	 2.849607 	 -2.605739 
O 	 -1.672336 	 -3.036518 	 7.112221 
O 	 6.625585 	 -1.607396 	 -4.425196 
O 	 3.995113 	 1.891932 	 -4.543041 
O 	 -3.382082 	 -2.834453 	 3.819959 
O 	 0.243894 	 0.659672 	 1.925095 
O 	 3.824737 	 5.436100 	 -0.905219 
O 	 -5.902859 	 -5.427861 	 -5.490294 
O 	 3.364800 	 1.335277 	 -0.330653 
O 	 4.814563 	 -4.112715 	 -3.254764 
O 	 -4.609756 	 -5.327351 	 -1.616269 
O 	 -3.454924 	 -4.807481 	 5.996881 
O 	 0.564853 	 -0.218164 	 -4.595187 
O 	 -2.403846 	 5.666074 	 -5.996675 
O 	 1.627558 	 -5.035712 	 -2.896350 
O 	 -6.438334 	 3.844231 	 2.896930 
O 	 3.326657 	 -0.318874 	 6.758348 
O 	 -0.205918 	 2.861821 	 -6.862087 
O 	 -5.316747 	 1.187397 	 -5.847086 
O 	 -6.038004 	 3.204122 	 -7.653278 
O 	 -5.107217 	 -6.608391 	 2.739075 
O 	 -0.446789 	 -7.032623 	 6.693000 
O 	 3.135047 	 5.882169 	 -4.309971 
O 	 0.462796 	 3.239239 	 0.255856 
O 	 -3.394881 	 2.001350 	 3.240640 
O 	 4.333959 	 -5.982921 	 -0.758768 
O 	 -1.211153 	 -0.414338 	 -6.901070 
O 	 5.204202 	 -1.398984 	 3.681366 
O 	 0.263035 	 -4.440882 	 4.855058 
O 	 -1.020839 	 -6.638337 	 -0.538420 
O 	 1.679766 	 2.630352 	 5.540643 
O 	 -1.286164 	 5.521375 	 1.681247 
O 	 6.304542 	 4.751433 	 -5.924998 
O 	 -2.681940 	 -0.084053 	 -2.231510 
O 	 1.281422 	 -2.142274 	 6.176096 
O 	 5.580410 	 6.183277 	 1.745799 
O 	 -4.672951 	 1.496320 	 0.525423 
O 	 -4.973170 	 -2.228857 	 -7.058824 
O 	 -3.513125 	 -0.289882 	 5.479597 
O 	 1.950745 	 -6.200373 	 1.238214 
O 	 6.052512 	 7.168810 	 -4.277726 
O 	 0.463191 	 5.380940 	 -5.638338 
O 	 6.038856 	 1.251174 	 -6.541385 
O 	 -2.382937 	 -0.418954 	 1.563827 
O 	 2.948793 	 -6.861606 	 -6.927571 
O 	 -3.122882 	 -1.932949 	 -4.289825 
O 	 -3.258989 	 2.443854 	 6.387914 
O 	 6.705702 	 -0.851453 	 -0.683488 
O 	 3.792626 	 -2.154672 	 -0.068328 
O 	 4.517645 	 3.548418 	 2.280623 
O 	 -3.706781 	 5.430941 	 2.934656 
O 	 5.086176 	 -4.081080 	 1.576822 
O 	 4.261837 	 -0.807838 	 -3.472791 
O 	 3.679941 	 -2.752728 	 -6.019959 
O 	 0.610951 	 -7.030286 	 -4.406957 
O 	 7.182383 	 -7.070528 	 4.174580 
O 	 1.635999 	 5.151175 	 2.684463 
O 	 0.851909 	 -7.230437 	 4.014058 
O 	 -6.081748 	 4.917309 	 -0.100999 
O 	 6.324293 	 1.728415 	 3.079677 
O 	 1.414690 	 6.510007 	 -0.815735 
O 	 -0.821150 	 -4.228359 	 1.636076 
O 	 -3.550184 	 6.766721 	 5.548159 
O 	 -3.798223 	 5.973893 	 -0.762049 
O 	 -2.282749 	 -6.513673 	 -3.173142 
O 	 -7.045231 	 7.288684 	 -1.806771 
O 	 3.260456 	 0.918594 	 3.507261 
O 	 6.125569 	 4.165926 	 -2.235098 
O 	 1.065597 	 -2.328079 	 0.787114 
O 	 -0.863343 	 3.429946 	 3.708658 
O 	 2.361030 	 -1.833742 	 3.033149 
O 	 -5.599735 	 -2.791935 	 -3.378291 
O 	 5.829768 	 -1.508450 	 6.481116 
O 	 -2.835502 	 -2.848335 	 -0.271289 
O 	 -7.187965 	 0.729651 	 -3.504095 
O 	 -1.222932 	 4.841073 	 5.865337 
O 	 -2.447021 	 1.951325 	 -4.986874 
O 	 -6.431399 	 1.530990 	 5.046954 
O 	 -0.425177 	 5.765032 	 -3.110804 
K 	 -2.179913 	 -6.247883 	 3.852605 
