333
conformation = 42
H 	 -6.452448 	 4.769092 	 0.267164 
H 	 7.231231 	 5.728293 	 0.165534 
H 	 5.015440 	 4.808903 	 -2.911600 
H 	 6.047976 	 5.443318 	 -3.990925 
H 	 2.919591 	 2.196220 	 0.092952 
H 	 3.128709 	 3.239112 	 -1.044912 
H 	 0.989085 	 -6.777244 	 5.513668 
H 	 -0.167672 	 -6.048820 	 6.369973 
H 	 1.246912 	 -2.666441 	 5.682011 
H 	 2.553245 	 -3.397470 	 5.751652 
H 	 5.080577 	 7.210183 	 -2.582256 
H 	 4.734310 	 -6.228861 	 -2.985966 
H 	 -7.117875 	 -6.431989 	 -4.111231 
H 	 -6.227491 	 -6.515603 	 -2.845287 
H 	 -4.728204 	 -7.111582 	 -0.755707 
H 	 -6.216108 	 -6.857007 	 -0.302715 
H 	 -5.402850 	 -2.554218 	 -5.849915 
H 	 -6.337964 	 -3.799493 	 -5.703397 
H 	 -2.780060 	 5.937375 	 -6.623545 
H 	 -1.210293 	 5.572249 	 -6.601402 
H 	 5.766764 	 2.784066 	 -1.586162 
H 	 5.230320 	 3.896500 	 -0.723829 
H 	 7.426383 	 2.341190 	 -0.739007 
H 	 6.761078 	 0.918120 	 -0.892828 
H 	 -4.174758 	 5.226073 	 1.217750 
H 	 -4.345344 	 3.753531 	 1.439593 
H 	 -0.718025 	 2.097500 	 4.629514 
H 	 -1.221237 	 0.580965 	 4.245943 
H 	 -0.242724 	 -6.768238 	 3.794865 
H 	 0.531632 	 -6.690855 	 2.477754 
H 	 -5.340211 	 3.319273 	 4.029173 
H 	 -4.483451 	 2.094862 	 3.843469 
H 	 -2.077309 	 4.888383 	 2.051379 
H 	 -1.451730 	 6.330215 	 2.243607 
H 	 5.792071 	 -6.737695 	 0.877183 
H 	 5.890883 	 -7.061789 	 -0.595834 
H 	 -1.377204 	 0.644564 	 6.448617 
H 	 -0.775183 	 -0.743240 	 6.381245 
H 	 -7.109849 	 0.428549 	 7.561847 
H 	 7.082407 	 -0.837012 	 -6.944058 
H 	 -6.355199 	 -6.592943 	 6.642072 
H 	 -7.367223 	 -7.154698 	 -7.314581 
H 	 3.678245 	 -4.688342 	 4.742536 
H 	 2.682433 	 -5.766809 	 4.599908 
H 	 3.296308 	 -0.016234 	 4.853629 
H 	 4.055065 	 0.905095 	 5.785775 
H 	 -4.689279 	 -6.111738 	 -6.188448 
H 	 -4.479410 	 -4.796627 	 -5.543613 
H 	 3.401819 	 -6.309990 	 1.787066 
H 	 2.249353 	 -6.479355 	 0.726237 
H 	 5.179811 	 -0.629982 	 -0.494878 
H 	 5.675705 	 -0.647327 	 -2.019097 
H 	 7.317602 	 5.483289 	 -6.909570 
H 	 -6.134948 	 5.583583 	 -6.389898 
H 	 -0.504578 	 -4.662058 	 -2.812952 
H 	 0.753744 	 -4.998963 	 -3.531193 
H 	 -3.349195 	 -3.570446 	 5.809484 
H 	 -3.944583 	 -2.719253 	 6.909270 
H 	 -4.860240 	 -3.944078 	 -2.759023 
H 	 -5.932816 	 -3.819063 	 -1.604696 
H 	 1.734493 	 -1.939605 	 -1.945546 
H 	 0.528545 	 -2.582527 	 -2.639313 
H 	 3.706698 	 1.256526 	 2.076052 
H 	 4.822801 	 1.555799 	 1.098452 
H 	 -4.434908 	 0.564757 	 5.869594 
H 	 -3.095119 	 0.600332 	 5.036910 
H 	 -0.019790 	 -4.950857 	 -0.219494 
H 	 0.146043 	 -6.300430 	 -1.114028 
H 	 -6.837250 	 -4.201531 	 1.960679 
H 	 -6.518207 	 -3.218209 	 3.115238 
H 	 4.460944 	 -0.861070 	 2.613197 
H 	 5.851432 	 -0.968686 	 2.902255 
H 	 -3.261023 	 -6.010928 	 -4.153463 
H 	 -2.684555 	 -5.746389 	 -2.730101 
H 	 1.878812 	 -1.084065 	 -6.055117 
H 	 0.882727 	 -2.088838 	 -5.434656 
H 	 5.848699 	 2.097699 	 7.525707 
H 	 4.463402 	 2.856292 	 7.418662 
H 	 -4.963756 	 7.530368 	 2.636445 
H 	 -5.222636 	 7.302695 	 1.127784 
H 	 4.898816 	 -2.340102 	 7.215439 
H 	 3.681714 	 -1.499466 	 6.860178 
H 	 6.738092 	 -6.306842 	 5.032191 
H 	 5.761050 	 7.508819 	 4.718105 
H 	 -4.081285 	 7.547758 	 5.376315 
H 	 -4.456484 	 6.137436 	 5.638682 
H 	 -2.348985 	 6.256499 	 -0.257729 
H 	 -1.830884 	 -7.152822 	 -0.381124 
H 	 1.678392 	 -1.801890 	 3.109259 
H 	 1.794163 	 -3.326360 	 3.581302 
H 	 -1.010330 	 2.605728 	 0.877637 
H 	 -1.694962 	 2.405447 	 2.207425 
H 	 2.411002 	 6.800240 	 4.191730 
H 	 3.206857 	 6.930047 	 5.616664 
H 	 -5.893155 	 0.427149 	 -4.216605 
H 	 -4.808303 	 1.642651 	 -4.034513 
H 	 4.099231 	 -3.096718 	 0.770271 
H 	 5.156465 	 -3.686179 	 -0.146038 
H 	 1.307212 	 0.294211 	 1.643523 
H 	 1.303196 	 0.003473 	 0.115229 
H 	 -4.746896 	 -1.992435 	 2.496731 
H 	 -3.962309 	 -2.866347 	 1.494535 
H 	 -4.512021 	 1.656564 	 -0.081689 
H 	 -4.251738 	 0.163249 	 0.078036 
H 	 -5.033200 	 6.485045 	 -3.891252 
H 	 -5.257841 	 5.020872 	 -4.140157 
H 	 1.128267 	 4.738287 	 0.164158 
H 	 -0.292234 	 5.327874 	 0.266954 
H 	 5.335741 	 4.029054 	 3.881714 
H 	 4.246929 	 3.273105 	 4.652993 
H 	 0.708104 	 0.407416 	 7.559244 
H 	 2.098806 	 0.818741 	 6.992446 
H 	 -1.428535 	 -0.414630 	 -4.155573 
H 	 -2.542145 	 -0.934588 	 -3.341035 
H 	 4.375325 	 6.110454 	 7.472368 
H 	 4.528386 	 4.963207 	 6.516081 
H 	 0.451719 	 -2.559754 	 0.348157 
H 	 -0.012072 	 -3.171479 	 1.743573 
H 	 5.923980 	 -4.586548 	 -4.069564 
H 	 6.742176 	 -3.316471 	 -3.722008 
H 	 1.969240 	 -6.762755 	 -1.916647 
H 	 1.551939 	 6.839838 	 -2.463177 
H 	 0.429664 	 6.462660 	 7.173925 
H 	 0.186327 	 5.405109 	 6.061344 
H 	 2.691484 	 0.983164 	 -1.504131 
H 	 3.292844 	 -0.284974 	 -2.350570 
H 	 0.205694 	 3.165529 	 -6.693033 
H 	 0.145333 	 2.124557 	 -5.650573 
H 	 -6.500998 	 1.784476 	 2.194957 
H 	 6.953531 	 1.940421 	 2.508796 
H 	 -0.790821 	 -2.970477 	 4.697271 
H 	 -0.721964 	 -3.354618 	 6.164681 
H 	 2.935341 	 -4.242198 	 -0.710085 
H 	 1.714487 	 -4.181427 	 -1.657542 
H 	 -7.250231 	 2.751948 	 -4.964606 
H 	 6.212582 	 2.728242 	 -5.210955 
H 	 -3.379111 	 -0.607966 	 -5.747383 
H 	 -4.256111 	 -0.122248 	 -6.893188 
H 	 -4.140193 	 -4.502494 	 0.240506 
H 	 -2.723817 	 -4.980342 	 0.631692 
H 	 -3.047449 	 -3.105079 	 -0.743713 
H 	 -1.587475 	 -3.331680 	 -0.763225 
H 	 2.208277 	 7.084166 	 -5.675289 
H 	 3.130820 	 6.009352 	 -5.239901 
H 	 -7.283185 	 4.968742 	 3.885634 
H 	 7.157584 	 4.748671 	 2.423164 
H 	 1.574398 	 3.154273 	 1.886368 
H 	 1.212956 	 2.483800 	 3.183195 
H 	 6.951914 	 -1.476029 	 0.774509 
H 	 -7.028092 	 -1.116034 	 1.988136 
H 	 -1.958441 	 -2.407141 	 -6.120177 
H 	 -1.243067 	 -3.393462 	 -5.131938 
H 	 4.058057 	 4.735384 	 1.961674 
H 	 3.464401 	 5.734563 	 0.909366 
H 	 -1.180427 	 -5.117549 	 2.992625 
H 	 -2.376508 	 -4.234083 	 2.721567 
H 	 -1.575421 	 0.340254 	 -0.986037 
H 	 -1.983233 	 -1.208673 	 -0.970258 
H 	 -6.242764 	 -3.609369 	 6.487443 
H 	 7.404681 	 -3.783144 	 7.417489 
H 	 4.240225 	 -5.031558 	 -7.286521 
H 	 5.418818 	 -4.650410 	 6.546947 
H 	 5.157024 	 0.544983 	 -5.390162 
H 	 5.682260 	 0.687262 	 -3.966069 
H 	 -3.191813 	 3.626568 	 -4.553219 
H 	 -2.181263 	 2.439304 	 -4.397414 
H 	 5.397898 	 -7.021846 	 -5.260995 
H 	 5.952407 	 -5.872053 	 -6.099009 
H 	 6.366395 	 -3.211931 	 4.710178 
H 	 5.143181 	 -2.504138 	 4.180296 
H 	 4.933780 	 -4.571359 	 2.626463 
H 	 5.476884 	 -5.914726 	 2.804590 
H 	 1.365941 	 4.583442 	 3.633543 
H 	 0.789846 	 5.716298 	 2.792070 
H 	 -6.669776 	 4.848559 	 -2.051051 
H 	 7.470680 	 3.992033 	 -3.063384 
H 	 2.475439 	 2.028545 	 -5.232417 
H 	 3.698925 	 2.028736 	 -4.272724 
H 	 2.171587 	 4.505984 	 -3.756875 
H 	 1.326014 	 4.148958 	 -2.619430 
H 	 -5.296716 	 1.677215 	 -6.201364 
H 	 -4.428428 	 2.300035 	 7.510271 
H 	 -7.274738 	 -1.281292 	 -4.567830 
H 	 -7.142951 	 -0.868142 	 -3.073374 
H 	 2.114473 	 4.482494 	 -7.242765 
H 	 2.236724 	 3.668091 	 6.366992 
H 	 0.460861 	 -6.488687 	 -5.098681 
H 	 -0.412765 	 -6.447076 	 -6.339202 
H 	 -2.905482 	 3.896718 	 -0.456182 
H 	 -2.932434 	 3.384724 	 -1.903935 
H 	 -2.072816 	 3.995958 	 6.983884 
H 	 -2.294294 	 3.084659 	 5.800422 
H 	 -1.383069 	 4.572295 	 4.343396 
H 	 -2.236992 	 5.934910 	 4.632883 
H 	 -5.880783 	 4.710505 	 6.464439 
H 	 -4.487291 	 4.342340 	 5.875249 
H 	 3.924890 	 -2.549288 	 -3.758159 
H 	 3.322634 	 -1.225064 	 -4.157950 
H 	 -7.239923 	 2.154742 	 5.765269 
H 	 6.520459 	 1.695813 	 4.990952 
H 	 1.930882 	 -4.239777 	 -7.167267 
H 	 1.632328 	 -5.731062 	 -7.042283 
H 	 0.930743 	 0.019555 	 -3.224544 
H 	 -0.003729 	 1.137999 	 -3.047554 
H 	 3.268396 	 -4.701260 	 -3.176232 
H 	 3.180032 	 -4.497455 	 -4.738846 
H 	 -5.368446 	 -5.242762 	 3.657218 
H 	 -3.903881 	 -5.664884 	 4.038798 
H 	 7.112340 	 -5.323851 	 -0.618305 
H 	 6.880673 	 -4.607202 	 -1.978756 
H 	 -1.432414 	 -4.689765 	 -6.794085 
H 	 -2.323769 	 -6.004205 	 -6.948586 
H 	 -6.115486 	 -0.503541 	 4.182676 
H 	 -5.101766 	 -1.552434 	 4.665223 
H 	 0.547434 	 2.643457 	 -1.062312 
H 	 -1.023900 	 2.862088 	 -1.163636 
H 	 -2.333128 	 -0.864389 	 2.255241 
H 	 -1.042529 	 -0.343633 	 1.651889 
H 	 -5.112474 	 -1.650917 	 -1.648645 
H 	 -5.755476 	 -0.331550 	 -1.339269 
H 	 1.078714 	 2.786245 	 4.989563 
O 	 7.452132 	 4.767720 	 0.400438 
O 	 5.141109 	 5.449546 	 -3.658179 
O 	 2.431436 	 2.687638 	 -0.575239 
O 	 0.242474 	 -6.130285 	 5.482344 
O 	 2.080742 	 -2.648849 	 6.175447 
O 	 4.786109 	 -6.839452 	 -2.213889 
O 	 -6.196944 	 -6.476750 	 -3.805693 
O 	 -5.639008 	 7.407380 	 -0.742144 
O 	 -5.584875 	 -3.332056 	 -5.303036 
O 	 -2.042897 	 5.511850 	 -6.125159 
O 	 5.074822 	 3.517440 	 -1.614581 
O 	 7.240725 	 1.623192 	 -1.393193 
O 	 -4.377237 	 4.402171 	 0.726150 
O 	 -1.519653 	 1.474313 	 4.461233 
O 	 -0.342477 	 -6.978489 	 2.842447 
O 	 -4.916725 	 2.787359 	 3.304048 
O 	 -1.652796 	 5.653082 	 1.593353 
O 	 6.426240 	 -7.115695 	 0.209222 
O 	 -0.956707 	 -0.024225 	 6.995440 
O 	 7.345410 	 0.042257 	 -6.550933 
O 	 -7.252213 	 -6.398383 	 6.984806 
O 	 2.698116 	 -4.770673 	 4.538015 
O 	 3.135172 	 0.746417 	 5.453494 
O 	 -3.963976 	 -5.536954 	 -5.887037 
O 	 2.742397 	 -6.949962 	 1.452292 
O 	 5.955894 	 -0.743543 	 -1.092717 
O 	 -6.730356 	 5.817107 	 -7.135866 
O 	 0.002342 	 -4.403481 	 -3.594649 
O 	 -4.180923 	 -3.319893 	 6.224090 
O 	 -4.987376 	 -3.992245 	 -1.793842 
O 	 0.838951 	 -2.252772 	 -1.755662 
O 	 4.015937 	 1.009506 	 1.188998 
O 	 -3.993795 	 0.264061 	 5.067339 
O 	 -0.425827 	 -5.541995 	 -0.880055 
O 	 -6.571638 	 -4.187979 	 2.894681 
O 	 4.981081 	 -1.048305 	 3.396157 
O 	 -2.460158 	 -6.090678 	 -3.621030 
O 	 1.831479 	 -1.929886 	 -5.552667 
O 	 5.268051 	 2.603558 	 6.898260 
O 	 -5.181135 	 6.833750 	 1.975606 
O 	 4.531024 	 -1.447217 	 7.377438 
O 	 5.896675 	 -6.429415 	 4.506799 
O 	 -3.716471 	 6.741274 	 5.843635 
O 	 -2.493129 	 7.117493 	 -0.713423 
O 	 1.380991 	 -2.728199 	 2.934040 
O 	 -1.664882 	 3.011167 	 1.454792 
O 	 2.432992 	 7.164353 	 5.089757 
O 	 -5.334979 	 1.105534 	 -4.650865 
O 	 4.218564 	 -3.326262 	 -0.170699 
O 	 1.010060 	 -0.352668 	 0.994947 
O 	 -4.039141 	 -1.937530 	 1.826688 
O 	 -4.905966 	 0.863920 	 0.315564 
O 	 -4.589168 	 5.704729 	 -4.256939 
O 	 0.464842 	 5.197493 	 -0.369329 
O 	 4.519902 	 3.503056 	 3.751356 
O 	 1.592341 	 0.805620 	 -7.081142 
O 	 -2.403021 	 -0.440522 	 -4.164676 
O 	 5.021557 	 5.760062 	 6.806244 
O 	 -0.109912 	 -3.240902 	 0.763851 
O 	 6.752121 	 -4.282933 	 -3.668476 
O 	 1.317769 	 -7.108282 	 -2.574957 
O 	 0.483019 	 5.499480 	 7.005056 
O 	 2.505531 	 0.128443 	 -1.958036 
O 	 -0.149901 	 3.046857 	 -5.785023 
O 	 -7.366315 	 1.419254 	 1.913955 
O 	 -0.644724 	 -2.582148 	 5.566595 
O 	 2.419804 	 -4.789150 	 -1.352819 
O 	 6.931284 	 3.400941 	 -5.121680 
O 	 -4.010875 	 -0.963618 	 -6.425136 
O 	 -3.611403 	 -4.845121 	 0.979096 
O 	 -2.339095 	 -3.369453 	 -1.366718 
O 	 2.794102 	 6.389605 	 -6.038272 
O 	 7.003174 	 4.394462 	 3.330621 
O 	 1.493817 	 2.245028 	 2.262824 
O 	 7.214855 	 -1.780648 	 1.674202 
O 	 -1.312029 	 -3.130902 	 -6.085436 
O 	 4.003944 	 4.907982 	 0.990998 
O 	 -1.865438 	 -4.587158 	 3.473873 
O 	 -2.206784 	 -0.316884 	 -0.609861 
O 	 -7.071439 	 -3.131200 	 6.829547 
O 	 4.988197 	 -4.417951 	 7.376510 
O 	 5.083596 	 1.135649 	 -4.601659 
O 	 -3.025503 	 2.814663 	 -4.051525 
O 	 6.167988 	 -6.447851 	 -5.356592 
O 	 5.478240 	 -3.404023 	 4.370719 
O 	 4.801715 	 -5.455109 	 2.236586 
O 	 1.668332 	 5.271369 	 2.930321 
O 	 -6.613022 	 4.477840 	 -2.952813 
O 	 2.863180 	 2.501292 	 -4.457702 
O 	 1.805547 	 4.935760 	 -2.961427 
O 	 -5.064933 	 1.603708 	 -7.167110 
O 	 7.124597 	 -0.841101 	 -3.844287 
O 	 2.759936 	 4.003132 	 7.083347 
O 	 0.139319 	 -7.067232 	 -5.790754 
O 	 -2.382599 	 3.941891 	 -1.299719 
O 	 -2.804958 	 3.664354 	 6.412322 
O 	 -1.340653 	 5.567479 	 4.468541 
O 	 -5.445933 	 4.474363 	 5.639052 
O 	 3.960730 	 -1.584881 	 -3.514417 
O 	 7.346500 	 1.323435 	 5.337139 
O 	 2.263293 	 -5.083690 	 -6.775940 
O 	 0.196519 	 0.473178 	 -3.729954 
O 	 3.795453 	 -4.582833 	 -4.001439 
O 	 -4.853094 	 -5.918149 	 4.180424 
O 	 6.993009 	 -4.444017 	 -0.997892 
O 	 -1.478450 	 -5.580270 	 -7.234041 
O 	 -5.889088 	 -1.428132 	 4.090173 
O 	 -0.312747 	 2.148827 	 -1.031173 
O 	 -1.460109 	 -0.447004 	 2.513316 
O 	 -5.894972 	 -1.103530 	 -1.877569 
O 	 0.327907 	 3.332010 	 4.687695 
K 	 -1.245465 	 6.192540 	 -3.251203 
