333
conformation = 16
H 	 6.698708 	 4.337612 	 -6.073521 
H 	 5.748191 	 5.633856 	 -5.940929 
H 	 3.085489 	 3.851104 	 5.636994 
H 	 3.212450 	 3.876408 	 4.128144 
H 	 0.261604 	 2.662341 	 -6.901776 
H 	 1.775540 	 2.442205 	 -7.246232 
H 	 -1.498603 	 -6.386830 	 -0.236008 
H 	 -3.061425 	 -6.483428 	 -0.083327 
H 	 -1.731130 	 -2.962150 	 0.933627 
H 	 -1.133835 	 -4.328872 	 0.559838 
H 	 2.593544 	 6.245510 	 6.029355 
H 	 2.063996 	 -7.204371 	 5.957545 
H 	 5.879197 	 -7.000500 	 4.984643 
H 	 6.064276 	 6.696557 	 5.870715 
H 	 -6.289102 	 6.730001 	 -7.019798 
H 	 -7.629244 	 -7.333770 	 -7.447412 
H 	 -6.653105 	 -3.096296 	 3.178401 
H 	 6.865149 	 -3.750042 	 3.177782 
H 	 -4.662496 	 5.754495 	 2.216255 
H 	 -3.259511 	 5.281859 	 2.248956 
H 	 4.270895 	 2.842801 	 7.098183 
H 	 3.522906 	 3.949636 	 -6.834401 
H 	 6.208226 	 1.150848 	 6.029175 
H 	 5.416520 	 0.968675 	 7.390104 
H 	 -6.273868 	 4.240739 	 -5.148125 
H 	 -6.899883 	 2.881271 	 -4.848199 
H 	 -2.550198 	 1.695159 	 -1.625528 
H 	 -3.346560 	 0.431684 	 -2.149681 
H 	 -1.365751 	 -6.987550 	 -2.522194 
H 	 -0.649555 	 7.417207 	 -3.869979 
H 	 -6.436871 	 2.639157 	 -2.376595 
H 	 -6.374153 	 1.059564 	 -2.398367 
H 	 -3.616880 	 4.832368 	 -4.376728 
H 	 -2.793501 	 6.160090 	 -4.129381 
H 	 3.753019 	 7.270540 	 -5.611837 
H 	 3.972297 	 7.057250 	 -7.067656 
H 	 -2.871514 	 0.047842 	 -0.291080 
H 	 -2.653435 	 -1.402463 	 -0.398161 
H 	 5.595870 	 -0.689051 	 0.776689 
H 	 4.627893 	 -1.812525 	 1.326269 
H 	 7.204449 	 -6.854767 	 -0.631281 
H 	 6.013305 	 7.308238 	 0.031722 
H 	 1.283392 	 -5.188859 	 -1.546622 
H 	 0.860628 	 -6.631261 	 -1.177749 
H 	 2.341122 	 -0.153575 	 -1.110483 
H 	 1.991904 	 0.796061 	 0.076654 
H 	 -7.228200 	 -6.865832 	 3.073363 
H 	 -6.689497 	 -5.371895 	 3.465142 
H 	 1.215423 	 7.003845 	 -5.402176 
H 	 0.322913 	 -6.703977 	 -5.783823 
H 	 2.816296 	 -0.714565 	 -6.857127 
H 	 3.484763 	 -1.052672 	 6.767936 
H 	 5.860502 	 6.385876 	 2.930527 
H 	 6.848945 	 5.402381 	 3.456241 
H 	 -2.619826 	 -5.336349 	 5.672090 
H 	 -1.396652 	 -5.681063 	 6.546884 
H 	 -6.725184 	 -4.650966 	 -0.097424 
H 	 -6.103636 	 -3.274763 	 0.244994 
H 	 6.583298 	 -5.236025 	 6.396752 
H 	 6.619936 	 -4.915516 	 -7.036500 
H 	 -0.975228 	 -2.029294 	 7.157013 
H 	 -1.944354 	 -3.247510 	 6.726435 
H 	 2.183999 	 1.296909 	 -4.210501 
H 	 3.700199 	 1.019783 	 -4.539399 
H 	 -6.916293 	 0.371745 	 -0.268314 
H 	 -5.439184 	 0.333036 	 -0.621414 
H 	 -2.663157 	 -5.530604 	 -6.252824 
H 	 -2.930159 	 -6.260635 	 -5.004665 
H 	 5.745083 	 -4.959802 	 -3.680382 
H 	 6.029284 	 -4.457573 	 -2.257861 
H 	 2.924071 	 -0.417065 	 -3.406498 
H 	 3.891732 	 -1.685172 	 -3.177379 
H 	 -5.253520 	 -6.044577 	 4.927013 
H 	 -4.887278 	 -5.061655 	 6.124922 
H 	 -0.942100 	 -1.920825 	 3.243550 
H 	 -1.604609 	 -3.147020 	 3.980677 
H 	 3.463760 	 2.647812 	 1.803664 
H 	 1.957260 	 2.795954 	 1.302316 
H 	 -6.480868 	 6.897703 	 -2.649091 
H 	 -6.838414 	 6.758237 	 -4.173422 
H 	 2.360784 	 -3.187773 	 1.818484 
H 	 1.777917 	 -2.037890 	 0.974702 
H 	 4.092530 	 -7.307708 	 -2.485768 
H 	 4.095625 	 6.696097 	 -1.170227 
H 	 -6.456577 	 6.848648 	 0.685013 
H 	 -6.196829 	 5.571636 	 -0.148531 
H 	 -4.273761 	 7.098086 	 -6.617110 
H 	 -4.710546 	 -7.220882 	 6.941413 
H 	 -0.405247 	 -2.512169 	 -2.906301 
H 	 -0.433580 	 -3.901073 	 -2.246972 
H 	 -2.579613 	 2.751903 	 -4.429361 
H 	 -3.918501 	 2.557311 	 -3.635632 
H 	 0.491910 	 6.091770 	 -1.526995 
H 	 1.938269 	 6.475511 	 -1.213273 
H 	 -7.574816 	 1.583474 	 4.122359 
H 	 -6.275445 	 1.109959 	 4.803554 
H 	 2.333200 	 -2.747657 	 -6.495770 
H 	 3.104672 	 -4.098259 	 -6.094638 
H 	 -0.676464 	 0.352109 	 -4.596541 
H 	 -0.428398 	 -0.740072 	 -5.680560 
H 	 -7.119909 	 -2.139650 	 -3.124429 
H 	 -6.462433 	 -2.571950 	 -4.583225 
H 	 -6.087844 	 -0.045646 	 -6.138296 
H 	 -7.138900 	 -0.171227 	 -4.994456 
H 	 -6.360463 	 5.922225 	 4.449172 
H 	 -6.872344 	 4.862216 	 5.414484 
H 	 -1.797881 	 4.014599 	 -6.989534 
H 	 -1.614710 	 5.063593 	 -5.889189 
H 	 2.598109 	 3.351510 	 -2.207360 
H 	 1.559204 	 2.492002 	 -1.560952 
H 	 -1.065624 	 0.276068 	 1.818151 
H 	 0.084593 	 -0.697367 	 1.663378 
H 	 -3.761112 	 -0.702295 	 5.052332 
H 	 -5.127101 	 -1.089060 	 5.777223 
H 	 2.644506 	 5.953694 	 1.193812 
H 	 3.480096 	 4.765020 	 0.666657 
H 	 -2.504209 	 -3.046864 	 -5.645390 
H 	 -1.803306 	 -3.516727 	 -4.347041 
H 	 3.366782 	 -4.886018 	 5.471920 
H 	 4.081782 	 -3.566161 	 5.449081 
H 	 -0.851274 	 6.863106 	 7.238838 
H 	 -0.104479 	 6.110126 	 6.070904 
H 	 -1.068759 	 6.108126 	 1.225693 
H 	 -2.011729 	 5.443381 	 0.150858 
H 	 0.611224 	 -0.014470 	 7.356732 
H 	 0.936167 	 -1.232773 	 6.510030 
H 	 -2.456272 	 2.239660 	 2.627378 
H 	 -1.774335 	 1.598468 	 3.863415 
H 	 6.238711 	 1.448342 	 -4.217952 
H 	 5.342298 	 2.689137 	 -4.455544 
H 	 -4.140232 	 -3.714391 	 -1.197840 
H 	 -4.352173 	 -4.338955 	 0.216536 
H 	 1.050173 	 -4.611137 	 -6.692384 
H 	 -0.367531 	 -4.548708 	 -6.105649 
H 	 5.436602 	 3.050943 	 3.184210 
H 	 4.308580 	 2.080640 	 3.614471 
H 	 -5.045694 	 -1.206502 	 3.128495 
H 	 -4.694639 	 -1.607928 	 1.580118 
H 	 -6.558731 	 -6.119283 	 -5.866638 
H 	 -5.321866 	 -5.303545 	 -5.752874 
H 	 -4.955147 	 -2.829273 	 6.770666 
H 	 -5.556156 	 -3.947519 	 -7.255314 
H 	 0.256588 	 6.057506 	 3.368676 
H 	 1.168631 	 4.733003 	 3.405204 
H 	 5.203261 	 3.899195 	 -1.544717 
H 	 5.506300 	 4.989887 	 -2.627482 
H 	 0.049979 	 2.928077 	 -3.993758 
H 	 -0.877185 	 2.164909 	 -3.103922 
H 	 4.890035 	 -2.190368 	 -5.887729 
H 	 5.148262 	 -0.885217 	 -5.244368 
H 	 -3.998446 	 -3.125301 	 2.982609 
H 	 -4.005520 	 -4.041409 	 4.227297 
H 	 1.986034 	 4.714097 	 -4.377278 
H 	 1.129311 	 5.050430 	 -5.575165 
H 	 -3.175136 	 -5.484576 	 -2.479790 
H 	 -3.832718 	 -4.555491 	 -3.655694 
H 	 -3.505373 	 0.164372 	 -6.901197 
H 	 -3.825170 	 -1.276442 	 -6.796192 
H 	 6.385293 	 -3.855146 	 1.047547 
H 	 5.358223 	 -4.957157 	 1.652126 
H 	 1.832116 	 -5.779232 	 1.882988 
H 	 2.573200 	 -5.005553 	 0.801710 
H 	 3.725751 	 -0.059787 	 2.815353 
H 	 4.184229 	 -0.338447 	 4.310735 
H 	 -5.342870 	 2.935202 	 4.241583 
H 	 -3.992540 	 2.236889 	 4.132508 
H 	 3.680210 	 6.423614 	 3.388506 
H 	 4.067599 	 -7.148043 	 2.659083 
H 	 3.695059 	 -4.240573 	 -1.841051 
H 	 2.881380 	 -2.947089 	 -1.562973 
H 	 1.716150 	 -5.591251 	 -4.707252 
H 	 3.057310 	 -5.619679 	 -3.927457 
H 	 -0.617896 	 3.883803 	 -2.127263 
H 	 -1.475122 	 5.084352 	 -2.276613 
H 	 5.991149 	 4.742062 	 6.837126 
H 	 5.108270 	 4.448023 	 5.576115 
H 	 0.589977 	 1.674646 	 3.475430 
H 	 1.687272 	 1.101427 	 4.280709 
H 	 -0.291981 	 3.820278 	 4.679489 
H 	 0.340129 	 3.445145 	 6.059398 
H 	 -7.452045 	 0.769146 	 1.833769 
H 	 -6.641597 	 2.014173 	 1.474607 
H 	 5.445862 	 -2.255772 	 3.926598 
H 	 6.553108 	 -2.081058 	 5.030646 
H 	 -0.428112 	 4.164150 	 1.184198 
H 	 -0.677083 	 2.885363 	 0.354992 
H 	 -1.528220 	 -6.983457 	 4.665282 
H 	 -2.519741 	 -6.980198 	 3.420598 
H 	 -5.275791 	 3.551969 	 -7.186283 
H 	 -4.831047 	 2.776116 	 6.366828 
H 	 -4.253416 	 3.387725 	 1.616309 
H 	 -4.136140 	 2.278704 	 0.457844 
H 	 -3.400672 	 4.166672 	 -1.566634 
H 	 -4.012296 	 5.544725 	 -1.253817 
H 	 6.171053 	 4.794892 	 1.185385 
H 	 6.491028 	 3.347631 	 0.592535 
H 	 1.678415 	 -2.886553 	 4.644090 
H 	 2.404865 	 -1.608111 	 4.230569 
H 	 4.839006 	 1.239675 	 -0.477796 
H 	 5.539555 	 1.062135 	 -1.872585 
H 	 -0.290892 	 -4.509916 	 2.405503 
H 	 -0.818837 	 -5.905073 	 2.859479 
H 	 -1.770645 	 -0.924504 	 4.998163 
H 	 -1.828874 	 0.339934 	 5.957582 
H 	 0.610836 	 -5.181098 	 5.953137 
H 	 0.801359 	 -5.211720 	 4.440178 
H 	 -6.870033 	 -5.833774 	 -2.579627 
H 	 -5.497033 	 -5.744121 	 -1.931966 
H 	 4.422929 	 -5.810444 	 -6.445653 
H 	 4.490329 	 -4.558166 	 7.393787 
H 	 -3.789296 	 -5.143324 	 2.409725 
H 	 -4.809448 	 -6.297104 	 2.252847 
H 	 5.862615 	 -2.101010 	 -1.251191 
H 	 7.095625 	 -3.010288 	 -0.905257 
H 	 -1.722139 	 1.196617 	 -6.403755 
H 	 -2.974081 	 2.175530 	 -6.536035 
H 	 -4.274159 	 -1.643391 	 -2.995719 
H 	 -2.914672 	 -1.237614 	 -3.710434 
H 	 -7.281393 	 -3.054439 	 6.566626 
H 	 -7.331019 	 -1.582540 	 7.203262 
H 	 -0.667963 	 1.257173 	 -1.225570 
O 	 5.779015 	 4.705858 	 -6.319074 
O 	 2.974901 	 4.463366 	 4.860566 
O 	 0.881639 	 2.048698 	 -7.331746 
O 	 -2.338790 	 -6.298983 	 -0.731469 
O 	 -0.885830 	 -3.421355 	 0.770889 
O 	 2.712745 	 7.135611 	 6.407898 
O 	 6.603778 	 7.339079 	 5.335023 
O 	 -7.152328 	 7.172247 	 -6.684100 
O 	 -7.192734 	 -3.717568 	 3.714003 
O 	 -4.130640 	 5.049582 	 2.668802 
O 	 3.409557 	 3.251545 	 7.377217 
O 	 5.482074 	 1.498037 	 6.581095 
O 	 -6.722517 	 3.509369 	 -5.566911 
O 	 -3.601919 	 1.333939 	 -1.819539 
O 	 -1.479502 	 -7.255097 	 -3.441153 
O 	 -6.648544 	 1.849475 	 -2.912131 
O 	 -3.364199 	 5.698791 	 -4.754869 
O 	 4.458277 	 7.347969 	 -6.272747 
O 	 -2.681105 	 -0.720284 	 0.280232 
O 	 5.179809 	 -1.052847 	 1.600320 
O 	 6.823300 	 -7.090521 	 0.238635 
O 	 0.538553 	 -5.686626 	 -1.207019 
O 	 1.593372 	 0.140215 	 -0.562737 
O 	 -6.434036 	 -6.325027 	 3.212574 
O 	 0.284331 	 7.254018 	 -5.460146 
O 	 3.720524 	 -0.771200 	 -7.226315 
O 	 6.334881 	 5.582678 	 2.670187 
O 	 -1.647875 	 -5.202327 	 5.723156 
O 	 -6.932414 	 -3.779497 	 0.248827 
O 	 7.209051 	 -4.856828 	 7.056765 
O 	 -1.872637 	 -2.446832 	 7.260093 
O 	 2.771878 	 0.717860 	 -4.758653 
O 	 -6.280267 	 -0.143828 	 -0.786527 
O 	 -3.048641 	 -6.366550 	 -5.964143 
O 	 5.654731 	 -5.238694 	 -2.747461 
O 	 3.107217 	 -1.233547 	 -2.834623 
O 	 -4.510752 	 -5.824096 	 5.562645 
O 	 -0.806588 	 -2.565251 	 3.976320 
O 	 2.867977 	 2.602844 	 1.014002 
O 	 -6.923249 	 6.313557 	 -3.304289 
O 	 2.397405 	 -2.198748 	 1.712842 
O 	 3.538991 	 7.266565 	 -1.756169 
O 	 -5.715945 	 6.251237 	 0.368949 
O 	 -4.753625 	 6.833925 	 -7.435775 
O 	 -0.298262 	 -3.444070 	 -3.106152 
O 	 -3.535207 	 2.941989 	 -4.451539 
O 	 1.019675 	 6.540962 	 -0.823086 
O 	 -7.239762 	 0.910736 	 4.767678 
O 	 2.247866 	 -3.615844 	 -5.997937 
O 	 -1.120152 	 -0.230700 	 -5.259841 
O 	 -6.396463 	 -2.002420 	 -3.780323 
O 	 -7.035126 	 0.072639 	 -5.930182 
O 	 -6.133316 	 5.037137 	 4.796210 
O 	 -1.100799 	 4.463429 	 -6.484244 
O 	 1.869437 	 2.765902 	 -2.443649 
O 	 -0.399583 	 -0.203324 	 2.342508 
O 	 -4.465623 	 -1.386776 	 5.119111 
O 	 3.551514 	 5.736997 	 0.881808 
O 	 -2.314661 	 -3.842181 	 -5.125079 
O 	 4.235089 	 -4.508449 	 5.701192 
O 	 -0.618538 	 6.915057 	 6.298231 
O 	 -1.798909 	 5.488937 	 1.100229 
O 	 0.748445 	 -1.004320 	 -7.441901 
O 	 -2.144172 	 2.433726 	 3.520779 
O 	 5.337380 	 1.709514 	 -4.522505 
O 	 -4.036988 	 -3.551126 	 -0.243859 
O 	 0.189583 	 -5.122978 	 -6.683841 
O 	 4.471555 	 2.967725 	 3.218405 
O 	 -5.323758 	 -1.719151 	 2.321763 
O 	 -6.243987 	 -5.306101 	 -5.417301 
O 	 -4.725821 	 -3.668517 	 7.202722 
O 	 0.732583 	 5.418185 	 2.831374 
O 	 5.168813 	 4.037268 	 -2.518130 
O 	 -0.600394 	 2.216521 	 -4.028796 
O 	 5.111940 	 -1.826549 	 -5.009064 
O 	 -3.493903 	 -3.840311 	 3.429834 
O 	 2.087426 	 4.999151 	 -5.315450 
O 	 -4.010307 	 -5.176041 	 -2.920142 
O 	 -4.291144 	 -0.430160 	 -6.953574 
O 	 5.607422 	 -3.993050 	 1.643931 
O 	 2.758341 	 -5.460382 	 1.675195 
O 	 3.735440 	 0.287866 	 3.722065 
O 	 -4.850098 	 2.148252 	 4.592009 
O 	 4.049981 	 7.327797 	 3.512766 
O 	 2.943944 	 -3.902011 	 -1.336595 
O 	 2.492772 	 -6.168028 	 -4.492788 
O 	 -0.557593 	 4.808022 	 -2.438101 
O 	 5.954429 	 4.887304 	 5.851798 
O 	 0.949340 	 1.701612 	 4.368676 
O 	 -0.222517 	 4.096276 	 5.604904 
O 	 -7.553380 	 1.726036 	 1.636774 
O 	 5.618151 	 -1.880332 	 4.794737 
O 	 -0.078773 	 3.251178 	 1.057889 
O 	 -1.797041 	 7.424527 	 3.874186 
O 	 -4.534819 	 3.323772 	 7.118093 
O 	 -4.366319 	 2.422435 	 1.404395 
O 	 -3.194102 	 5.030366 	 -1.253909 
O 	 6.299236 	 4.291273 	 0.305097 
O 	 2.310803 	 -2.222393 	 4.989223 
O 	 5.572636 	 0.800565 	 -0.931244 
O 	 -0.162058 	 -5.468119 	 2.260587 
O 	 -2.060508 	 0.000582 	 5.078517 
O 	 1.333981 	 -5.266672 	 5.282666 
O 	 -6.418860 	 -5.999193 	 -1.739925 
O 	 4.665891 	 -4.835320 	 -6.541346 
O 	 -4.021015 	 -5.898763 	 1.806856 
O 	 6.508161 	 -2.736463 	 -1.678599 
O 	 -2.267167 	 1.692299 	 -7.045734 
O 	 -3.320888 	 -1.477876 	 -2.839562 
O 	 -6.933735 	 -2.117584 	 6.472576 
O 	 -1.342729 	 1.940420 	 -1.288120 
K 	 -3.071138 	 5.146873 	 5.611771 
