333
conformation = 25
H 	 -7.529922 	 -7.352569 	 -7.549525 
H 	 6.121281 	 -6.325535 	 -7.391124 
H 	 3.001683 	 -7.219318 	 3.811069 
H 	 4.003142 	 7.224062 	 2.693808 
H 	 1.897569 	 4.669966 	 7.101882 
H 	 2.563894 	 5.689785 	 6.127594 
H 	 -0.520901 	 -3.791794 	 -1.940689 
H 	 -1.753908 	 -3.057827 	 -1.284688 
H 	 -0.469986 	 0.068000 	 -1.676252 
H 	 0.869916 	 -0.625513 	 -1.600087 
H 	 4.020585 	 -5.248570 	 4.337391 
H 	 3.774001 	 -3.737608 	 4.601097 
H 	 6.978779 	 -3.813033 	 3.502210 
H 	 -7.322665 	 -5.071780 	 4.169855 
H 	 -5.818290 	 -4.999887 	 6.474382 
H 	 -6.987674 	 -4.209949 	 5.954489 
H 	 -5.822145 	 0.041417 	 1.536551 
H 	 -7.328709 	 -0.274367 	 1.816604 
H 	 -3.879798 	 -6.184433 	 0.626815 
H 	 -2.336774 	 -6.458138 	 0.673658 
H 	 5.066945 	 5.874872 	 5.858677 
H 	 4.285498 	 6.977331 	 6.706526 
H 	 7.293848 	 4.679799 	 5.633250 
H 	 6.148659 	 3.579723 	 5.622378 
H 	 -5.619363 	 7.509404 	 -6.309998 
H 	 -5.584500 	 6.079566 	 -6.464241 
H 	 -1.849816 	 4.768855 	 -2.930451 
H 	 -2.621750 	 3.536176 	 -3.570821 
H 	 -0.532635 	 -3.631848 	 -4.245312 
H 	 -0.004382 	 -4.509332 	 -5.491924 
H 	 -5.411270 	 5.885631 	 -3.817084 
H 	 -5.816358 	 4.462740 	 -4.037840 
H 	 -3.018165 	 -6.753218 	 -5.762283 
H 	 -2.219135 	 -5.411231 	 -5.420350 
H 	 4.670439 	 -4.146243 	 -6.903102 
H 	 4.608613 	 -4.695271 	 6.566344 
H 	 -1.983675 	 3.415838 	 -1.841300 
H 	 -2.346024 	 1.937951 	 -1.415672 
H 	 5.641441 	 2.975414 	 -0.537422 
H 	 5.339829 	 1.610102 	 0.069912 
H 	 -7.164733 	 -3.660413 	 -1.964411 
H 	 7.318521 	 -4.469551 	 -0.714825 
H 	 2.477815 	 -1.971396 	 -2.820258 
H 	 1.661905 	 -3.248709 	 -3.267785 
H 	 2.742919 	 2.843978 	 -2.870662 
H 	 3.373230 	 3.640903 	 -1.707943 
H 	 -6.075938 	 -3.650382 	 2.101516 
H 	 -5.726817 	 -2.166040 	 1.900277 
H 	 1.949507 	 -4.524845 	 -6.146659 
H 	 1.246700 	 -3.629946 	 -7.223885 
H 	 3.614699 	 2.714711 	 6.391756 
H 	 4.205670 	 1.835162 	 5.303741 
H 	 6.362309 	 -5.378008 	 1.227817 
H 	 -7.484455 	 -6.338596 	 1.773646 
H 	 -1.705926 	 -2.331897 	 4.157158 
H 	 -0.274519 	 -2.262064 	 4.579552 
H 	 -5.343390 	 -1.399765 	 -1.679503 
H 	 -4.615819 	 -0.151470 	 -1.101910 
H 	 -6.925928 	 -1.540420 	 4.496317 
H 	 7.200892 	 -1.663769 	 5.848232 
H 	 -0.099416 	 1.304809 	 5.392454 
H 	 -1.056122 	 0.186338 	 4.933139 
H 	 3.269282 	 4.768218 	 -5.362346 
H 	 4.390425 	 4.095725 	 -6.110530 
H 	 -5.687057 	 3.343940 	 -1.816973 
H 	 -4.368124 	 3.450236 	 -2.618232 
H 	 -1.520502 	 -2.342835 	 -7.096748 
H 	 -1.216374 	 -3.888047 	 -7.293815 
H 	 6.539174 	 -1.703800 	 -5.151635 
H 	 6.996469 	 -0.925072 	 -3.879223 
H 	 3.822990 	 2.703565 	 -4.799627 
H 	 4.674270 	 1.406137 	 -4.704591 
H 	 -4.260739 	 -2.858970 	 3.572433 
H 	 -3.668751 	 -2.302045 	 4.874065 
H 	 0.545254 	 1.311633 	 1.646928 
H 	 -0.730812 	 0.457134 	 1.660801 
H 	 3.862192 	 5.604492 	 0.313562 
H 	 2.862855 	 5.707717 	 -0.840481 
H 	 -5.872254 	 -4.669401 	 -4.573934 
H 	 -6.650169 	 -5.237192 	 -5.789641 
H 	 3.261826 	 0.284483 	 -0.222165 
H 	 2.648523 	 1.539732 	 -0.699941 
H 	 5.277605 	 -3.556505 	 -3.130591 
H 	 4.880150 	 -4.836160 	 -2.332996 
H 	 -4.897270 	 -4.442619 	 -1.478659 
H 	 -5.514236 	 -5.842041 	 -1.107797 
H 	 -3.520649 	 -5.338468 	 6.925723 
H 	 -3.088820 	 -3.987940 	 6.425283 
H 	 0.012574 	 -0.002015 	 -3.665585 
H 	 0.866319 	 -1.123021 	 -4.102732 
H 	 -1.548052 	 5.572829 	 -5.659933 
H 	 -2.852722 	 5.459402 	 -4.889452 
H 	 1.159958 	 -5.909911 	 -2.857030 
H 	 2.494036 	 -5.170325 	 -3.143772 
H 	 -6.452535 	 4.790941 	 3.420709 
H 	 -5.607179 	 3.468955 	 3.141023 
H 	 3.228643 	 0.610156 	 6.756151 
H 	 4.197701 	 -0.610130 	 6.803245 
H 	 0.043294 	 3.616271 	 -6.169313 
H 	 0.561960 	 2.450976 	 -7.011982 
H 	 -5.951764 	 1.343763 	 -4.790937 
H 	 -5.348435 	 0.222009 	 -5.744866 
H 	 -5.207139 	 3.453347 	 7.164681 
H 	 -5.802252 	 2.488735 	 -6.715843 
H 	 -5.055461 	 -5.720251 	 3.150036 
H 	 -5.650870 	 -6.987532 	 3.792998 
H 	 -0.091872 	 6.928830 	 7.249703 
H 	 -1.142408 	 -6.894652 	 -7.330133 
H 	 3.749282 	 6.200484 	 -3.735254 
H 	 2.693962 	 5.185813 	 -3.418814 
H 	 -0.194339 	 2.641054 	 -0.047058 
H 	 1.208031 	 3.412822 	 0.118094 
H 	 -2.512036 	 2.149819 	 3.655767 
H 	 -3.908196 	 2.319724 	 4.264478 
H 	 3.406455 	 -5.943208 	 -0.229452 
H 	 4.359047 	 -6.889732 	 -0.915970 
H 	 -1.156980 	 0.030869 	 -7.494345 
H 	 -0.676910 	 -0.103409 	 -6.005581 
H 	 4.168209 	 -1.272613 	 3.744800 
H 	 5.438895 	 -0.466621 	 3.871402 
H 	 0.902293 	 -3.996764 	 5.428932 
H 	 0.685429 	 -5.384479 	 4.853038 
H 	 -0.522254 	 -5.886785 	 -0.330839 
H 	 -1.415599 	 -6.715035 	 -1.279242 
H 	 1.507812 	 3.440192 	 5.784929 
H 	 1.993927 	 2.117629 	 5.020033 
H 	 -1.277319 	 5.834294 	 1.058185 
H 	 -0.943147 	 4.625296 	 1.867595 
H 	 6.970491 	 4.685512 	 -6.364796 
H 	 6.613904 	 5.186048 	 -4.997530 
H 	 -3.288887 	 -0.449880 	 -2.880485 
H 	 -2.673815 	 -1.051757 	 -1.602438 
H 	 1.929710 	 -1.493184 	 6.698176 
H 	 0.341385 	 -1.861582 	 6.805007 
H 	 6.134067 	 6.234573 	 1.221763 
H 	 5.343095 	 5.138950 	 2.014024 
H 	 -4.544935 	 1.734038 	 1.659759 
H 	 -5.240925 	 2.062892 	 0.312647 
H 	 -5.777742 	 -2.611238 	 -7.544896 
H 	 -4.785363 	 -3.082213 	 -6.473099 
H 	 -4.304574 	 0.198009 	 5.235774 
H 	 -4.068646 	 -0.560642 	 6.534141 
H 	 1.399871 	 -5.548281 	 1.754596 
H 	 2.691883 	 -6.444235 	 2.021797 
H 	 6.763418 	 7.517938 	 -3.513936 
H 	 6.315229 	 7.356382 	 -4.982782 
H 	 0.759333 	 6.278323 	 -5.459409 
H 	 0.205497 	 5.155860 	 -4.550410 
H 	 5.303898 	 1.323158 	 -7.117773 
H 	 6.410835 	 2.101836 	 -6.352929 
H 	 -3.216454 	 0.102449 	 1.595012 
H 	 -2.587851 	 -0.605313 	 2.819335 
H 	 2.875329 	 -6.807890 	 -5.748364 
H 	 2.109617 	 -6.363452 	 -7.081048 
H 	 -2.598919 	 -2.676672 	 -3.761524 
H 	 -3.242096 	 -1.901264 	 -5.064826 
H 	 -2.567108 	 3.051042 	 6.463594 
H 	 -2.931358 	 1.608792 	 6.430256 
H 	 -7.373243 	 -0.724645 	 -0.574065 
H 	 6.493184 	 -1.781116 	 -0.787901 
H 	 2.750878 	 -2.356035 	 0.046804 
H 	 4.154125 	 -2.054625 	 -0.687691 
H 	 4.737968 	 2.965962 	 1.591440 
H 	 4.949266 	 2.964475 	 3.139970 
H 	 -4.038616 	 6.237582 	 2.759423 
H 	 -2.874731 	 5.214486 	 2.643744 
H 	 4.105574 	 -4.572201 	 1.867011 
H 	 4.859923 	 -3.329577 	 1.499332 
H 	 5.014172 	 -1.137030 	 -3.702929 
H 	 3.875167 	 -0.023753 	 -3.683800 
H 	 3.279668 	 -1.989118 	 -6.265802 
H 	 3.452251 	 -2.983834 	 -4.968292 
H 	 0.172201 	 6.946087 	 -3.772121 
H 	 -0.295562 	 -6.532302 	 -4.168696 
H 	 6.938478 	 -7.092484 	 5.320795 
H 	 6.257786 	 -7.314774 	 3.966419 
H 	 1.219015 	 4.420379 	 2.298353 
H 	 2.522970 	 5.022228 	 2.724252 
H 	 1.193213 	 7.132524 	 3.446694 
H 	 0.453139 	 6.839626 	 4.775346 
H 	 -6.612039 	 4.620973 	 0.958395 
H 	 -5.294999 	 4.770582 	 0.191360 
H 	 6.820627 	 2.044617 	 2.575405 
H 	 7.017816 	 1.459014 	 3.991835 
H 	 0.974867 	 7.418857 	 -0.105792 
H 	 0.531588 	 6.501942 	 -1.250489 
H 	 -0.569675 	 -3.756409 	 2.778028 
H 	 -1.738485 	 -3.836538 	 1.752120 
H 	 -4.293489 	 6.744786 	 6.411733 
H 	 -3.950091 	 6.071387 	 5.016267 
H 	 -3.218932 	 6.491014 	 0.151598 
H 	 -3.227704 	 5.626127 	 -1.173062 
H 	 -2.269731 	 7.352602 	 -2.898393 
H 	 -3.199036 	 -6.295581 	 -2.498688 
H 	 7.168852 	 -7.247303 	 -0.746927 
H 	 -6.898693 	 6.466414 	 -1.071029 
H 	 2.741786 	 0.147303 	 3.235858 
H 	 3.629022 	 1.330287 	 2.936564 
H 	 6.376744 	 5.014865 	 -2.166713 
H 	 5.445056 	 3.960575 	 -2.766404 
H 	 0.484583 	 -1.580007 	 0.589244 
H 	 0.236494 	 -3.027325 	 1.015708 
H 	 -0.113415 	 3.051356 	 3.731312 
H 	 -1.019590 	 3.922051 	 4.656911 
H 	 1.647483 	 -2.280687 	 4.090482 
H 	 1.656514 	 -1.928539 	 2.582332 
H 	 -6.388277 	 -2.440326 	 -3.490688 
H 	 -4.758516 	 -2.330488 	 -3.534291 
H 	 5.520995 	 -2.464472 	 7.017320 
H 	 5.493004 	 -1.440654 	 5.815683 
H 	 -2.792080 	 -2.207074 	 0.672999 
H 	 -3.874802 	 -3.022801 	 0.143943 
H 	 6.783825 	 1.189871 	 -3.166727 
H 	 -6.907128 	 0.528770 	 -2.361198 
H 	 -1.270654 	 4.227358 	 6.903683 
H 	 -2.006587 	 5.478193 	 6.209227 
H 	 -3.295461 	 1.681954 	 -5.102437 
H 	 -1.838729 	 1.805854 	 -5.417804 
H 	 -6.453737 	 0.460417 	 5.461612 
H 	 -6.479830 	 1.873489 	 6.027119 
H 	 0.178675 	 4.903220 	 -2.469796 
O 	 6.423812 	 -7.182570 	 7.113496 
O 	 3.733753 	 -6.898887 	 3.240656 
O 	 1.743554 	 5.145709 	 6.265263 
O 	 -1.266959 	 -3.194305 	 -2.135086 
O 	 0.260075 	 -0.115864 	 -1.048934 
O 	 3.709350 	 -4.606458 	 5.004502 
O 	 -7.078650 	 -4.262435 	 3.687570 
O 	 -6.663447 	 -4.662152 	 6.759016 
O 	 -6.426210 	 -0.383851 	 2.171594 
O 	 -3.204493 	 -6.688576 	 1.095118 
O 	 4.167667 	 6.295227 	 5.998015 
O 	 6.460795 	 4.418979 	 5.220192 
O 	 -5.703287 	 6.873839 	 -7.031770 
O 	 -2.819007 	 4.478734 	 -3.324691 
O 	 -0.805015 	 -4.102643 	 -5.043130 
O 	 -5.995425 	 5.351939 	 -4.390015 
O 	 -2.591676 	 -5.977287 	 -6.116467 
O 	 5.266181 	 -4.376589 	 7.266208 
O 	 -1.779156 	 2.681321 	 -1.250792 
O 	 5.965719 	 2.354366 	 0.170758 
O 	 7.127547 	 -3.642400 	 -1.206030 
O 	 1.592515 	 -2.347884 	 -2.901477 
O 	 2.506119 	 3.427642 	 -2.135037 
O 	 -5.413216 	 -3.067555 	 1.680448 
O 	 1.162493 	 -4.507898 	 -6.732932 
O 	 4.320570 	 2.082839 	 6.239567 
O 	 6.994023 	 -6.087238 	 0.953131 
O 	 -0.894635 	 -1.852992 	 3.938741 
O 	 -5.479633 	 -0.553416 	 -1.272849 
O 	 -6.805060 	 -1.558509 	 5.474975 
O 	 -0.756035 	 0.638236 	 5.740838 
O 	 3.444325 	 4.042384 	 -5.982847 
O 	 -5.071819 	 2.833850 	 -2.360070 
O 	 -1.829015 	 -3.173832 	 -7.493793 
O 	 6.479042 	 -1.733221 	 -4.173683 
O 	 3.917920 	 1.877775 	 -4.285808 
O 	 -3.423505 	 -2.796182 	 4.063654 
O 	 0.100116 	 0.611925 	 2.180137 
O 	 3.780275 	 5.458362 	 -0.634452 
O 	 -5.939476 	 -5.460341 	 -5.157174 
O 	 3.311443 	 1.250355 	 -0.044252 
O 	 4.641029 	 -4.273343 	 -3.090721 
O 	 -4.694668 	 -5.387828 	 -1.345414 
O 	 -3.616073 	 -4.774442 	 6.129327 
O 	 0.520595 	 -0.274540 	 -4.421454 
O 	 -2.491845 	 5.700255 	 -5.766383 
O 	 1.658853 	 -5.082927 	 -2.615826 
O 	 -6.495388 	 3.840588 	 3.208835 
O 	 3.282141 	 -0.351387 	 7.045612 
O 	 -0.244091 	 2.844442 	 -6.689045 
O 	 -5.438843 	 1.192650 	 -5.597789 
O 	 -6.085509 	 3.133263 	 -7.434665 
O 	 -5.175886 	 -6.669600 	 3.026077 
O 	 -0.430831 	 -7.112295 	 6.913059 
O 	 2.947161 	 5.831839 	 -4.126499 
O 	 0.410286 	 3.103170 	 0.562233 
O 	 -3.439904 	 1.908924 	 3.511015 
O 	 4.347359 	 -5.972511 	 -0.529397 
O 	 -1.299715 	 -0.480268 	 -6.668139 
O 	 5.100506 	 -1.380911 	 3.985428 
O 	 0.203734 	 -4.543002 	 5.024527 
O 	 -1.098350 	 -6.663484 	 -0.338942 
O 	 1.699373 	 2.485831 	 5.883826 
O 	 -1.381655 	 5.494885 	 1.953583 
O 	 6.170043 	 4.764665 	 -5.781750 
O 	 -2.992610 	 -0.235178 	 -1.985415 
O 	 1.221099 	 -2.145783 	 6.480231 
O 	 5.467385 	 6.117074 	 1.912151 
O 	 -4.661961 	 1.387345 	 0.732034 
O 	 -5.124287 	 -2.257699 	 -6.891762 
O 	 -3.635393 	 -0.360689 	 5.664950 
O 	 1.864371 	 -6.345405 	 1.472205 
O 	 6.029841 	 7.159002 	 -4.027447 
O 	 0.411525 	 5.381321 	 -5.459072 
O 	 5.980882 	 1.237916 	 -6.424172 
O 	 -2.485809 	 -0.477986 	 1.873495 
O 	 2.901081 	 -6.842104 	 -6.725665 
O 	 -3.214656 	 -1.982465 	 -4.096146 
O 	 -3.342989 	 2.481778 	 6.591898 
O 	 6.605785 	 -0.886002 	 -0.332924 
O 	 3.717513 	 -2.280422 	 0.171416 
O 	 4.523272 	 3.478054 	 2.411829 
O 	 -3.743263 	 5.363789 	 3.122552 
O 	 5.018296 	 -4.245026 	 1.750413 
O 	 4.226024 	 -0.786128 	 -3.209539 
O 	 3.595359 	 -2.857163 	 -5.917658 
O 	 0.517873 	 -7.056367 	 -4.123427 
O 	 7.109028 	 -6.975501 	 4.359778 
O 	 1.586039 	 5.074322 	 2.893735 
O 	 0.777587 	 -7.340562 	 4.212224 
O 	 -6.245806 	 4.937444 	 0.102984 
O 	 6.321241 	 1.573878 	 3.271059 
O 	 1.167560 	 6.537355 	 -0.514877 
O 	 -0.875237 	 -4.241132 	 1.991710 
O 	 -3.618423 	 6.711494 	 5.687612 
O 	 -3.768141 	 5.870236 	 -0.388485 
O 	 -2.309875 	 -6.589218 	 -2.897406 
O 	 -7.283045 	 7.291253 	 -1.504890 
O 	 3.263650 	 0.829493 	 3.687440 
O 	 6.145050 	 4.071115 	 -2.094527 
O 	 0.920066 	 -2.345375 	 0.959476 
O 	 -1.013392 	 3.339311 	 3.866544 
O 	 2.226141 	 -1.943938 	 3.377012 
O 	 -5.565188 	 -2.825427 	 -3.166269 
O 	 5.741094 	 -1.554975 	 6.754647 
O 	 -2.936453 	 -2.899723 	 -0.044031 
O 	 -7.324503 	 0.585838 	 -3.243640 
O 	 -1.260480 	 4.813541 	 6.122759 
O 	 -2.459243 	 1.853612 	 -4.654293 
O 	 -6.367182 	 1.385312 	 5.192321 
O 	 -0.402998 	 5.600339 	 -2.816153 
K 	 -2.243374 	 -6.378532 	 4.086754 
