333
conformation = 9
H 	 -7.526826 	 -7.375489 	 -7.489345 
H 	 6.799084 	 -5.885523 	 7.186004 
H 	 3.730387 	 7.408346 	 4.610489 
H 	 4.030146 	 6.923459 	 3.148284 
H 	 1.089106 	 5.261505 	 6.887128 
H 	 2.392096 	 5.813565 	 6.170625 
H 	 -0.779960 	 -2.913252 	 -2.240156 
H 	 -1.819263 	 -3.113521 	 -1.079356 
H 	 -1.191759 	 0.449961 	 -0.835692 
H 	 -0.430461 	 -0.829925 	 -1.034777 
H 	 3.343203 	 -4.903917 	 4.155315 
H 	 2.499179 	 -4.225801 	 5.240528 
H 	 6.118983 	 -3.700294 	 3.816628 
H 	 6.929894 	 -4.912229 	 4.201486 
H 	 -5.589300 	 -4.712846 	 6.760060 
H 	 -6.778375 	 -3.912857 	 6.217620 
H 	 -5.696499 	 0.071133 	 2.086957 
H 	 -7.188136 	 -0.417101 	 1.894628 
H 	 -4.022845 	 -5.999609 	 0.855892 
H 	 -2.465152 	 -6.207498 	 1.013223 
H 	 5.065420 	 6.251644 	 5.834122 
H 	 4.341969 	 7.229083 	 6.810977 
H 	 6.953204 	 5.244875 	 4.840250 
H 	 6.192094 	 3.945662 	 5.231329 
H 	 -5.508527 	 6.748273 	 -6.020131 
H 	 -5.920204 	 5.791659 	 -7.040558 
H 	 -1.964250 	 4.777144 	 -3.043770 
H 	 -3.266564 	 3.941234 	 -3.468729 
H 	 -0.005830 	 -4.167716 	 -4.033223 
H 	 -0.220408 	 -4.111237 	 -5.524976 
H 	 -5.900473 	 5.708685 	 -3.778253 
H 	 -5.737080 	 4.234623 	 -3.634210 
H 	 -2.966964 	 -6.699791 	 -6.018479 
H 	 -2.181658 	 -5.338232 	 -5.512959 
H 	 4.760336 	 -4.860839 	 -7.136301 
H 	 4.696393 	 -4.342365 	 6.351152 
H 	 -1.893441 	 3.333238 	 -0.869279 
H 	 -2.525148 	 2.115603 	 -1.798593 
H 	 5.741083 	 2.368542 	 -0.710285 
H 	 5.728239 	 1.238498 	 0.314347 
H 	 -6.819501 	 -3.489054 	 -1.876035 
H 	 7.032181 	 -4.442183 	 -1.237054 
H 	 1.799860 	 -1.643965 	 -2.309847 
H 	 1.478417 	 -3.203711 	 -2.108865 
H 	 2.693765 	 3.590382 	 -2.547631 
H 	 2.567215 	 4.048655 	 -1.098683 
H 	 -6.354275 	 -3.764689 	 1.634066 
H 	 -6.029382 	 -2.282774 	 2.001404 
H 	 1.729589 	 -4.445513 	 -6.527402 
H 	 0.868390 	 -3.419669 	 -7.341655 
H 	 4.218505 	 3.401088 	 6.484828 
H 	 4.654485 	 2.465311 	 5.300070 
H 	 6.620438 	 -5.452706 	 1.881681 
H 	 -6.976062 	 -6.252788 	 2.285618 
H 	 -1.879166 	 -2.291756 	 4.904893 
H 	 -0.488672 	 -2.181374 	 5.541061 
H 	 -6.230472 	 -1.233809 	 -1.817561 
H 	 -5.565765 	 -0.314279 	 -0.785314 
H 	 -7.481376 	 -1.941181 	 4.918043 
H 	 7.243408 	 -1.353419 	 6.277547 
H 	 -0.382865 	 1.337376 	 5.999518 
H 	 -1.163342 	 0.189965 	 5.348306 
H 	 2.901799 	 4.644433 	 -5.887112 
H 	 4.348717 	 4.167387 	 -6.034829 
H 	 -6.146015 	 4.029675 	 -1.534915 
H 	 -4.793151 	 3.242969 	 -1.744213 
H 	 -2.361659 	 -2.135410 	 -7.322413 
H 	 -2.054016 	 -3.594706 	 -6.816763 
H 	 6.540838 	 -2.291900 	 -5.230332 
H 	 6.427907 	 -1.182760 	 -4.173738 
H 	 3.405752 	 2.507244 	 -4.733338 
H 	 4.812409 	 1.824055 	 -4.676905 
H 	 -4.766360 	 -2.699401 	 3.506925 
H 	 -4.361398 	 -1.947174 	 4.892646 
H 	 0.506138 	 0.938049 	 2.281480 
H 	 -0.840262 	 0.368313 	 2.585196 
H 	 3.950219 	 6.165836 	 0.444926 
H 	 2.599833 	 6.475113 	 -0.314284 
H 	 -6.085183 	 -4.462769 	 -4.015013 
H 	 -5.906081 	 -5.259258 	 -5.329852 
H 	 3.277009 	 -0.154929 	 0.649289 
H 	 2.917687 	 0.854696 	 -0.345719 
H 	 4.650629 	 -4.471455 	 -4.117006 
H 	 4.792658 	 -5.149006 	 -2.658662 
H 	 -5.750226 	 -4.905507 	 -0.952918 
H 	 -5.578374 	 -6.408468 	 -0.669433 
H 	 -3.324115 	 -4.512408 	 6.605927 
H 	 -3.693503 	 -4.189940 	 5.264263 
H 	 1.126740 	 0.496781 	 -4.173485 
H 	 0.043297 	 -0.514350 	 -3.809669 
H 	 -1.848536 	 6.134715 	 -5.774623 
H 	 -3.245120 	 6.057209 	 -5.071232 
H 	 1.154068 	 -5.743689 	 -2.404708 
H 	 2.588281 	 -5.173698 	 -2.466475 
H 	 -6.773090 	 4.043014 	 2.468951 
H 	 -5.640223 	 4.763988 	 3.367577 
H 	 3.088251 	 0.686282 	 -7.229270 
H 	 3.712405 	 -0.705408 	 -7.435221 
H 	 0.146358 	 3.635784 	 -5.920577 
H 	 0.224883 	 2.466876 	 -7.004395 
H 	 -6.217232 	 1.167977 	 -4.082245 
H 	 -5.773132 	 0.401569 	 -5.387704 
H 	 -5.519742 	 3.347649 	 7.107873 
H 	 -6.207978 	 2.857259 	 -6.528798 
H 	 -5.237010 	 -5.649869 	 3.685966 
H 	 -6.178321 	 -6.715308 	 4.378235 
H 	 -0.529553 	 6.884331 	 7.053297 
H 	 -0.902149 	 -6.666139 	 -7.251494 
H 	 3.479850 	 6.489269 	 -3.233779 
H 	 2.134413 	 5.808236 	 -2.949701 
H 	 -0.491141 	 2.851749 	 0.860120 
H 	 1.015656 	 2.823857 	 0.344821 
H 	 -3.226071 	 2.437708 	 3.953818 
H 	 -4.748042 	 2.080711 	 4.311252 
H 	 3.369822 	 -6.091307 	 -0.881324 
H 	 4.612986 	 -6.822492 	 -0.491317 
H 	 -1.777527 	 0.094858 	 -7.112191 
H 	 -0.851270 	 -0.160517 	 -5.878432 
H 	 4.112017 	 -1.461640 	 4.206757 
H 	 5.241759 	 -0.399566 	 4.070536 
H 	 0.478480 	 -5.408625 	 5.895886 
H 	 0.293850 	 -5.790828 	 4.455792 
H 	 -0.102232 	 -5.104146 	 -0.429916 
H 	 -1.459369 	 -5.680181 	 -0.911211 
H 	 1.581586 	 3.154377 	 5.915622 
H 	 1.918739 	 1.784473 	 5.257106 
H 	 -1.191774 	 5.675393 	 1.420985 
H 	 -1.202390 	 4.874967 	 2.663711 
H 	 7.135372 	 5.022244 	 -5.629201 
H 	 6.240370 	 6.091808 	 -6.088727 
H 	 -2.988194 	 -0.708572 	 -2.131308 
H 	 -3.112579 	 -0.969517 	 -0.566716 
H 	 1.507694 	 -1.203893 	 7.207490 
H 	 -0.044522 	 -1.433681 	 -7.224011 
H 	 6.260391 	 6.404538 	 1.595139 
H 	 5.376045 	 5.163941 	 1.940570 
H 	 -4.135002 	 2.235108 	 1.835456 
H 	 -3.635342 	 2.083110 	 0.389826 
H 	 -5.977036 	 -2.641460 	 -7.003923 
H 	 -4.978226 	 -2.227510 	 -5.916723 
H 	 -4.349459 	 0.120132 	 5.517415 
H 	 -4.727425 	 -0.806940 	 6.652471 
H 	 0.469077 	 -5.742046 	 1.637864 
H 	 1.750188 	 -6.160242 	 2.331488 
H 	 6.308740 	 7.349645 	 -2.931630 
H 	 6.666448 	 -7.171876 	 -4.352764 
H 	 0.472991 	 6.258410 	 -5.339729 
H 	 -0.136580 	 5.237726 	 -4.284632 
H 	 5.549811 	 0.809072 	 -6.746071 
H 	 6.153625 	 2.231630 	 -6.882708 
H 	 -3.261576 	 0.238855 	 1.883021 
H 	 -3.139396 	 -0.747359 	 3.090053 
H 	 3.069436 	 -7.295197 	 -5.977633 
H 	 2.031583 	 -6.942032 	 -7.133460 
H 	 -2.576219 	 -2.646000 	 -4.253136 
H 	 -2.626241 	 -1.356140 	 -5.185217 
H 	 -2.805047 	 3.565276 	 6.474312 
H 	 -3.219271 	 2.087599 	 6.394372 
H 	 6.580680 	 -0.958258 	 -0.046828 
H 	 5.329759 	 -1.273307 	 0.861112 
H 	 2.497268 	 -2.040802 	 0.595417 
H 	 3.399765 	 -2.530501 	 -0.610076 
H 	 4.884478 	 3.023642 	 1.522925 
H 	 5.228259 	 3.193258 	 2.964924 
H 	 -4.446551 	 6.529912 	 3.092450 
H 	 -3.323119 	 5.479080 	 2.743297 
H 	 4.385060 	 -5.189431 	 2.771779 
H 	 4.162786 	 -4.217984 	 1.615611 
H 	 4.083469 	 -1.225240 	 -2.531212 
H 	 3.475910 	 0.061391 	 -3.114724 
H 	 2.271631 	 -2.441710 	 -5.307117 
H 	 3.744779 	 -2.206400 	 -5.853211 
H 	 0.058252 	 7.261530 	 -3.379607 
H 	 -0.865505 	 -6.462441 	 -3.617694 
H 	 6.502798 	 -6.940495 	 5.512433 
H 	 5.489484 	 -7.032191 	 4.333709 
H 	 1.463888 	 4.262447 	 2.322563 
H 	 2.829693 	 4.458255 	 3.002774 
H 	 0.225536 	 6.524722 	 3.306050 
H 	 0.945086 	 6.617654 	 4.684938 
H 	 -7.282768 	 3.982158 	 0.162626 
H 	 -6.035141 	 4.749721 	 0.687663 
H 	 6.286047 	 0.990756 	 2.496776 
H 	 7.171918 	 1.258960 	 3.717153 
H 	 0.094473 	 6.851725 	 0.004789 
H 	 0.174926 	 5.944386 	 -1.242215 
H 	 -1.381116 	 -3.623709 	 3.264575 
H 	 -1.800033 	 -4.034304 	 1.837227 
H 	 -4.431530 	 6.581303 	 6.678133 
H 	 -4.214994 	 5.712374 	 5.419130 
H 	 -3.535085 	 6.361991 	 0.507575 
H 	 -3.210931 	 5.649261 	 -0.802806 
H 	 -2.992113 	 7.347853 	 -2.483622 
H 	 -3.239157 	 -6.040842 	 -2.257008 
H 	 6.956998 	 -6.787616 	 -0.128956 
H 	 6.801458 	 6.717694 	 -0.567691 
H 	 2.213011 	 0.553618 	 3.616076 
H 	 2.919937 	 1.437216 	 2.590849 
H 	 5.587333 	 4.296750 	 -2.692820 
H 	 6.923609 	 4.046134 	 -3.339597 
H 	 -0.013879 	 -1.562555 	 0.991248 
H 	 0.076741 	 -3.110084 	 1.434538 
H 	 -0.715862 	 2.524403 	 3.554819 
H 	 -1.163766 	 3.652670 	 4.510410 
H 	 1.309812 	 -1.956477 	 4.636655 
H 	 1.921605 	 -2.450857 	 3.294990 
H 	 -6.513830 	 -2.316713 	 -3.744504 
H 	 -4.895908 	 -2.556439 	 -3.805107 
H 	 5.349156 	 -2.497366 	 7.408312 
H 	 5.096837 	 -1.457687 	 6.271218 
H 	 -3.178335 	 -1.961519 	 1.230965 
H 	 -4.289652 	 -2.871479 	 0.797780 
H 	 6.850735 	 1.482865 	 -3.309145 
H 	 -7.406075 	 0.479863 	 -2.247870 
H 	 -1.561114 	 4.671132 	 -7.372278 
H 	 -2.341129 	 5.648099 	 6.583585 
H 	 -3.462658 	 1.584549 	 -4.574151 
H 	 -2.018827 	 2.030935 	 -4.703464 
H 	 -6.577655 	 0.242731 	 5.303922 
H 	 -6.469194 	 1.724561 	 5.804348 
H 	 0.055085 	 4.176868 	 -2.547836 
O 	 6.580410 	 -6.840277 	 7.364208 
O 	 3.800172 	 -7.192909 	 3.673890 
O 	 1.518516 	 5.361869 	 6.023564 
O 	 -1.745499 	 -2.998992 	 -2.047495 
O 	 -0.397201 	 -0.024704 	 -0.492927 
O 	 3.387555 	 -4.558873 	 5.065237 
O 	 7.031944 	 -3.931997 	 4.094905 
O 	 -6.438907 	 -4.344568 	 7.035051 
O 	 -6.351218 	 -0.589540 	 2.364569 
O 	 -3.330650 	 -6.543485 	 1.350230 
O 	 4.204000 	 6.620846 	 6.053207 
O 	 6.131736 	 4.919754 	 5.219748 
O 	 -5.859965 	 6.759757 	 -6.917921 
O 	 -3.030203 	 4.783223 	 -3.029753 
O 	 -0.714901 	 -3.928492 	 -4.651603 
O 	 -5.801771 	 4.905417 	 -4.358610 
O 	 -2.485890 	 -5.843010 	 -6.278394 
O 	 5.283444 	 -4.315011 	 7.145134 
O 	 -2.067213 	 2.380998 	 -0.970102 
O 	 6.135858 	 2.115731 	 0.160299 
O 	 -7.086186 	 -3.911347 	 -1.027436 
O 	 1.120332 	 -2.345646 	 -2.416493 
O 	 2.303322 	 3.317214 	 -1.712195 
O 	 -5.636731 	 -3.172699 	 1.925321 
O 	 0.916347 	 -4.349059 	 -7.051819 
O 	 4.808136 	 2.640293 	 6.260993 
O 	 7.315418 	 -6.076566 	 1.533117 
O 	 -0.990225 	 -1.892306 	 4.731847 
O 	 -6.454760 	 -0.628447 	 -1.065985 
O 	 -6.931392 	 -1.576328 	 5.657128 
O 	 -1.279447 	 0.920432 	 5.977056 
O 	 3.444137 	 3.920039 	 -6.323779 
O 	 -5.730767 	 3.324452 	 -2.060018 
O 	 -2.645241 	 -3.065935 	 -7.368381 
O 	 6.446273 	 -2.160041 	 -4.272795 
O 	 3.974579 	 1.935418 	 -4.194935 
O 	 -4.031556 	 -2.491069 	 4.154280 
O 	 -0.027408 	 0.674843 	 3.043259 
O 	 3.511505 	 6.123149 	 -0.446896 
O 	 -6.275590 	 -5.329530 	 -4.429430 
O 	 3.094695 	 0.806336 	 0.623379 
O 	 4.393077 	 -4.394262 	 -3.179553 
O 	 -5.068005 	 -5.589712 	 -0.831898 
O 	 -3.749687 	 -4.987392 	 5.839347 
O 	 0.489559 	 -0.099101 	 -4.605177 
O 	 -2.821447 	 6.377387 	 -5.894081 
O 	 1.827875 	 -5.277061 	 -1.860209 
O 	 -6.551482 	 4.352231 	 3.371917 
O 	 2.923342 	 -0.279418 	 -7.023058 
O 	 -0.375271 	 2.997512 	 -6.470326 
O 	 -5.623851 	 1.244747 	 -4.865587 
O 	 -6.352146 	 3.446171 	 -7.282236 
O 	 -5.578319 	 -6.563554 	 3.600756 
O 	 -0.223928 	 -7.084720 	 7.083362 
O 	 2.626365 	 6.268862 	 -3.660415 
O 	 0.438469 	 3.017820 	 1.088591 
O 	 -4.016616 	 1.887354 	 3.683023 
O 	 4.257993 	 -5.905431 	 -0.527947 
O 	 -1.606864 	 -0.555563 	 -6.381193 
O 	 5.051549 	 -1.301891 	 4.411784 
O 	 0.176192 	 -5.013934 	 5.052415 
O 	 -0.894579 	 -5.566549 	 -0.111144 
O 	 1.394564 	 2.174187 	 5.973680 
O 	 -1.360146 	 5.820613 	 2.365683 
O 	 6.249069 	 5.134010 	 -6.031843 
O 	 -3.349111 	 -0.338307 	 -1.296978 
O 	 0.652322 	 -1.666752 	 7.029228 
O 	 5.347425 	 6.137851 	 1.761086 
O 	 -4.263910 	 1.705057 	 1.041396 
O 	 -5.508803 	 -1.852762 	 -6.637118 
O 	 -3.983576 	 -0.595766 	 6.038121 
O 	 1.366884 	 -6.016186 	 1.443287 
O 	 5.879125 	 7.488019 	 -3.801827 
O 	 -0.075105 	 5.455460 	 -5.264592 
O 	 6.041537 	 1.501218 	 -6.247954 
O 	 -2.777974 	 -0.566125 	 2.214394 
O 	 2.844785 	 -6.653767 	 -6.671480 
O 	 -3.057346 	 -1.801428 	 -4.438326 
O 	 -3.624552 	 2.982287 	 6.512323 
O 	 6.156331 	 -0.682691 	 0.815019 
O 	 3.421916 	 -2.080419 	 0.274426 
O 	 4.573847 	 3.506774 	 2.319153 
O 	 -4.201531 	 5.571834 	 3.172554 
O 	 4.760364 	 -4.376430 	 2.351078 
O 	 3.369252 	 -0.597954 	 -2.365161 
O 	 3.102989 	 -2.873202 	 -5.589614 
O 	 0.071513 	 -6.708771 	 -3.641213 
O 	 6.464686 	 -6.942853 	 4.543925 
O 	 1.952351 	 4.843661 	 2.928635 
O 	 0.350888 	 7.114873 	 4.072089 
O 	 -6.981256 	 4.873124 	 0.463727 
O 	 6.255655 	 1.278163 	 3.412014 
O 	 0.585752 	 6.087174 	 -0.337702 
O 	 -1.176583 	 -4.277879 	 2.575115 
O 	 -3.782929 	 6.392777 	 5.962234 
O 	 -3.475713 	 5.472936 	 0.127629 
O 	 -2.604710 	 -6.666880 	 -2.616573 
O 	 6.759551 	 -7.271138 	 -0.934068 
O 	 2.855704 	 1.305355 	 3.571058 
O 	 6.489522 	 4.031340 	 -2.450113 
O 	 0.603613 	 -2.334881 	 1.077987 
O 	 -1.376627 	 3.239676 	 3.633969 
O 	 2.171133 	 -1.969640 	 4.147803 
O 	 -5.715855 	 -2.667785 	 -3.259948 
O 	 5.336409 	 -1.527519 	 7.210176 
O 	 -3.319551 	 -2.692183 	 0.569857 
O 	 7.005651 	 0.535642 	 -3.091680 
O 	 -1.632092 	 4.973234 	 6.610177 
O 	 -2.638111 	 1.721289 	 -4.012704 
O 	 -6.184927 	 1.112925 	 5.075874 
O 	 -0.294548 	 5.045043 	 -2.728775 
K 	 -2.267597 	 -6.598149 	 4.256264 
