333
conformation = 1
H 	 9.278301 	 9.066915 	 3.981362 
H 	 8.973308 	 10.378593 	 3.249820 
H 	 9.505092 	 9.732202 	 7.564360 
H 	 9.595216 	 8.568483 	 8.503332 
H 	 13.710922 	 13.315024 	 12.549128 
H 	 14.307105 	 11.962489 	 12.175408 
H 	 7.091951 	 0.203133 	 9.901007 
H 	 7.386272 	 0.755107 	 8.455193 
H 	 2.574570 	 2.072668 	 7.118614 
H 	 4.074894 	 2.611629 	 7.352683 
H 	 11.034861 	 8.185144 	 5.377349 
H 	 10.593788 	 6.985870 	 4.401775 
H 	 2.433717 	 3.736943 	 11.777754 
H 	 2.669065 	 2.190422 	 11.724640 
H 	 3.546435 	 0.545633 	 10.902991 
H 	 3.769372 	 1.356737 	 9.546397 
H 	 14.785040 	 10.194087 	 13.992007 
H 	 13.712345 	 9.661705 	 13.178319 
H 	 10.205774 	 5.404145 	 1.887823 
H 	 9.282796 	 6.177250 	 0.939134 
H 	 2.995005 	 6.315604 	 3.457215 
H 	 4.481536 	 6.901970 	 3.420408 
H 	 1.807501 	 7.016485 	 0.665534 
H 	 2.156422 	 5.603169 	 0.307055 
H 	 4.439436 	 10.911207 	 13.607802 
H 	 4.925954 	 12.368458 	 13.862610 
H 	 4.078679 	 10.078847 	 5.322540 
H 	 3.086442 	 8.993365 	 5.448678 
H 	 1.405169 	 4.267914 	 7.363125 
H 	 1.865194 	 4.458660 	 8.899442 
H 	 0.135024 	 0.803019 	 3.364417 
H 	 14.757087 	 2.206328 	 4.030379 
H 	 13.613121 	 7.749220 	 3.572676 
H 	 14.637376 	 8.727005 	 2.897019 
H 	 7.087634 	 1.282095 	 0.548977 
H 	 6.291224 	 0.580211 	 1.684152 
H 	 10.140934 	 13.198515 	 1.028825 
H 	 10.718689 	 12.326177 	 14.807018 
H 	 8.965032 	 1.921695 	 5.025890 
H 	 8.320487 	 0.669581 	 5.453120 
H 	 7.226486 	 13.024413 	 5.102339 
H 	 6.285891 	 13.952986 	 5.968824 
H 	 12.304814 	 5.249880 	 7.828561 
H 	 11.368110 	 5.822414 	 6.794191 
H 	 4.327184 	 12.019640 	 1.188628 
H 	 5.078285 	 11.395846 	 2.509589 
H 	 1.106646 	 9.964626 	 0.922562 
H 	 1.535951 	 10.948734 	 14.796801 
H 	 12.227656 	 1.005017 	 11.073728 
H 	 12.413971 	 0.235735 	 9.788418 
H 	 0.560686 	 1.658460 	 7.623686 
H 	 14.870160 	 2.388572 	 6.391789 
H 	 9.616027 	 9.873890 	 10.935815 
H 	 10.941895 	 8.986119 	 10.677246 
H 	 0.273669 	 3.126894 	 12.071658 
H 	 13.990395 	 2.374606 	 11.423646 
H 	 12.935719 	 9.123336 	 6.295663 
H 	 12.930987 	 9.359764 	 4.741950 
H 	 11.111779 	 7.770151 	 0.009285 
H 	 11.343390 	 6.457120 	 14.090784 
H 	 8.264548 	 10.738844 	 13.926119 
H 	 6.934651 	 11.512480 	 13.674195 
H 	 2.418927 	 13.103588 	 10.781106 
H 	 1.394160 	 12.099584 	 10.097310 
H 	 5.162640 	 11.822352 	 9.707805 
H 	 3.736316 	 11.162006 	 9.392802 
H 	 1.864580 	 12.297955 	 4.033575 
H 	 2.787416 	 12.025195 	 2.861752 
H 	 3.789352 	 2.815363 	 3.913369 
H 	 2.362272 	 2.739925 	 3.479049 
H 	 4.107494 	 3.886698 	 14.750839 
H 	 2.844703 	 3.397781 	 14.070014 
H 	 8.309969 	 5.538016 	 5.276219 
H 	 8.752864 	 6.846628 	 5.917206 
H 	 13.028943 	 2.863675 	 9.404080 
H 	 14.373043 	 3.449553 	 9.082288 
H 	 9.674916 	 14.774513 	 3.124957 
H 	 8.475020 	 14.780653 	 2.087666 
H 	 9.035061 	 5.572331 	 10.410128 
H 	 7.644016 	 5.029949 	 10.374446 
H 	 9.752407 	 12.734388 	 12.582567 
H 	 10.080989 	 12.830983 	 11.096168 
H 	 4.712002 	 13.917336 	 2.475568 
H 	 4.253746 	 0.474107 	 2.565001 
H 	 4.014890 	 8.710601 	 1.361366 
H 	 5.420018 	 8.093788 	 1.281808 
H 	 3.266924 	 5.701417 	 11.048172 
H 	 1.736381 	 5.788419 	 10.902728 
H 	 5.378494 	 6.918273 	 11.097882 
H 	 4.258202 	 7.344650 	 12.186884 
H 	 6.353127 	 3.593491 	 0.862650 
H 	 6.421500 	 3.725886 	 14.287295 
H 	 6.476583 	 8.270202 	 10.058003 
H 	 6.974116 	 6.847064 	 9.556688 
H 	 4.883732 	 0.617922 	 4.476454 
H 	 3.998195 	 1.121037 	 5.681327 
H 	 13.651777 	 13.655700 	 6.088923 
H 	 12.435178 	 14.530864 	 6.492318 
H 	 12.454750 	 1.432126 	 0.851475 
H 	 11.175618 	 0.557444 	 1.233408 
H 	 7.199543 	 9.760978 	 12.081562 
H 	 7.118659 	 10.485580 	 10.633661 
H 	 13.428963 	 14.757590 	 14.677696 
H 	 12.483139 	 13.559832 	 0.274355 
H 	 1.150237 	 10.015112 	 5.559598 
H 	 0.640805 	 11.613223 	 5.811844 
H 	 0.129027 	 5.787179 	 8.019306 
H 	 14.268474 	 7.175195 	 8.034976 
H 	 1.241807 	 1.142561 	 10.210885 
H 	 14.780087 	 0.603741 	 9.899047 
H 	 10.017617 	 10.205666 	 12.951808 
H 	 10.396481 	 10.157953 	 14.445692 
H 	 14.843401 	 9.573493 	 8.865953 
H 	 14.824266 	 10.009557 	 7.397507 
H 	 4.884638 	 4.111922 	 2.470857 
H 	 6.170104 	 5.091863 	 2.655979 
H 	 12.813359 	 4.767134 	 10.198835 
H 	 11.926008 	 5.567561 	 11.239948 
H 	 7.767187 	 12.723351 	 9.990135 
H 	 6.933006 	 12.730383 	 11.338624 
H 	 10.556364 	 9.389532 	 1.791219 
H 	 12.092567 	 9.132352 	 1.931434 
H 	 2.251870 	 13.218852 	 8.269571 
H 	 3.339445 	 13.806076 	 7.376906 
H 	 2.280561 	 7.378482 	 7.918121 
H 	 2.963885 	 6.854511 	 9.228776 
H 	 6.045729 	 9.480987 	 3.292683 
H 	 6.709893 	 10.564633 	 4.063543 
H 	 5.863646 	 5.402748 	 12.683608 
H 	 7.405913 	 5.476190 	 12.893812 
H 	 4.043158 	 13.295768 	 12.330037 
H 	 4.960101 	 13.573994 	 11.116448 
H 	 14.717123 	 6.693885 	 14.318094 
H 	 13.378101 	 7.130183 	 13.638103 
H 	 13.981222 	 13.735697 	 3.118420 
H 	 0.472666 	 13.436809 	 2.465796 
H 	 4.217292 	 8.402022 	 14.040971 
H 	 2.892678 	 8.884430 	 13.447143 
H 	 0.284182 	 4.714706 	 3.570074 
H 	 0.594611 	 5.346068 	 4.868824 
H 	 7.422180 	 6.972918 	 2.971563 
H 	 6.705017 	 6.745236 	 4.249790 
H 	 9.992734 	 2.403453 	 0.256287 
H 	 9.375371 	 3.835222 	 0.499751 
H 	 13.216792 	 4.077691 	 5.648428 
H 	 12.574000 	 2.669586 	 6.109028 
H 	 0.250845 	 2.960033 	 2.020253 
H 	 1.294263 	 3.661666 	 1.245421 
H 	 8.027986 	 1.533704 	 12.219820 
H 	 5.802757 	 0.821458 	 11.950644 
H 	 6.043967 	 1.977401 	 6.425235 
H 	 5.949031 	 2.787693 	 7.705126 
H 	 3.123974 	 4.985049 	 5.971010 
H 	 2.401515 	 4.100554 	 5.024278 
H 	 9.936300 	 11.014208 	 9.071806 
H 	 11.179566 	 11.980382 	 9.287183 
H 	 1.695316 	 0.360801 	 1.235699 
H 	 2.922706 	 1.077679 	 0.803906 
H 	 1.806784 	 10.125722 	 3.171719 
H 	 2.182224 	 8.708916 	 3.042003 
H 	 10.718558 	 1.173621 	 6.484195 
H 	 11.290791 	 1.211010 	 7.939649 
H 	 13.181492 	 13.023681 	 8.312189 
H 	 13.304700 	 12.972283 	 10.005573 
H 	 11.317167 	 11.158727 	 6.041033 
H 	 10.462345 	 11.908011 	 7.016952 
H 	 5.268785 	 1.219126 	 14.229016 
H 	 4.841345 	 14.638583 	 13.921413 
H 	 11.813559 	 13.558410 	 4.720469 
H 	 11.723270 	 13.059741 	 3.280087 
H 	 0.750719 	 14.325510 	 12.138293 
H 	 1.042206 	 0.719624 	 12.998231 
H 	 1.886058 	 9.270947 	 9.611216 
H 	 1.273565 	 9.650666 	 10.888607 
H 	 5.933086 	 13.625953 	 8.108418 
H 	 4.821144 	 12.596434 	 7.690162 
H 	 8.098078 	 8.964566 	 1.809013 
H 	 7.212652 	 9.099009 	 0.538305 
H 	 6.033330 	 3.363846 	 10.605969 
H 	 5.328139 	 4.718804 	 10.578683 
H 	 7.283371 	 3.516403 	 3.770852 
H 	 8.845807 	 3.675727 	 3.600108 
H 	 6.787314 	 13.715074 	 14.160056 
H 	 6.530565 	 14.339222 	 12.297359 
H 	 8.575889 	 7.403478 	 11.985135 
H 	 9.705981 	 7.018810 	 12.965285 
H 	 11.388602 	 14.785439 	 12.858881 
H 	 10.584434 	 1.167443 	 12.765551 
H 	 13.610470 	 6.859898 	 1.459238 
H 	 14.102547 	 5.299611 	 1.386420 
H 	 9.284395 	 11.926964 	 4.617867 
H 	 8.757232 	 12.839796 	 3.434415 
H 	 1.930664 	 7.228230 	 5.228100 
H 	 0.622620 	 7.134344 	 6.122297 
H 	 11.420941 	 4.399690 	 3.357171 
H 	 12.229376 	 5.517764 	 2.525527 
H 	 0.427599 	 12.931100 	 14.706570 
H 	 1.770403 	 12.831913 	 14.191737 
H 	 9.462035 	 0.738251 	 9.594183 
H 	 8.921657 	 2.606354 	 12.918666 
H 	 14.137980 	 10.831540 	 2.093095 
H 	 12.744139 	 11.323631 	 1.629592 
H 	 7.994633 	 9.233127 	 6.427784 
H 	 6.699623 	 8.489400 	 6.061620 
H 	 0.187964 	 7.282038 	 11.934487 
H 	 14.461568 	 6.740002 	 10.722050 
H 	 1.177048 	 13.684688 	 6.284429 
H 	 0.458231 	 13.589828 	 4.743509 
H 	 5.590888 	 4.618178 	 6.566023 
H 	 5.042398 	 6.058618 	 6.805294 
H 	 13.542163 	 1.986093 	 13.731450 
H 	 14.437761 	 2.538226 	 0.063116 
H 	 4.324723 	 7.871418 	 7.153775 
H 	 5.520970 	 7.655118 	 8.072578 
H 	 12.178957 	 7.261837 	 9.452974 
H 	 12.463243 	 8.543324 	 8.642921 
H 	 12.020099 	 2.838872 	 4.119051 
H 	 11.201016 	 2.299762 	 2.891282 
H 	 10.941218 	 4.383750 	 13.940830 
H 	 12.346440 	 4.346575 	 13.172299 
H 	 9.839123 	 1.779900 	 10.494513 
O 	 9.285462 	 9.455842 	 3.132941 
O 	 8.976814 	 9.228086 	 8.163837 
O 	 14.221472 	 12.897366 	 11.845254 
O 	 7.392965 	 14.831035 	 8.984756 
O 	 3.445615 	 1.876693 	 7.476905 
O 	 10.384881 	 7.420694 	 5.229961 
O 	 2.179856 	 2.884753 	 12.232922 
O 	 3.984433 	 1.300016 	 10.454133 
O 	 14.074361 	 10.522028 	 13.388577 
O 	 9.283353 	 5.398520 	 1.518527 
O 	 3.605121 	 6.921542 	 3.931952 
O 	 1.430644 	 6.137885 	 0.639394 
O 	 4.157154 	 11.754021 	 14.050564 
O 	 3.152319 	 9.879168 	 5.087239 
O 	 1.099888 	 4.556695 	 8.288729 
O 	 0.450993 	 1.772459 	 3.446401 
O 	 13.649988 	 8.599721 	 3.089355 
O 	 7.123248 	 0.530202 	 1.163013 
O 	 10.948184 	 12.679203 	 0.804056 
O 	 9.036007 	 1.267146 	 5.716174 
O 	 6.965235 	 13.972364 	 5.276443 
O 	 11.591048 	 4.984234 	 7.201101 
O 	 4.502832 	 12.058873 	 2.161957 
O 	 1.292396 	 10.011388 	 14.890350 
O 	 12.736458 	 1.030715 	 10.234822 
O 	 0.652541 	 1.723061 	 6.666028 
O 	 10.490582 	 9.620058 	 11.291596 
O 	 14.231207 	 3.014191 	 12.187784 
O 	 12.362546 	 9.351718 	 5.549723 
O 	 11.101837 	 7.401919 	 13.971500 
O 	 7.278616 	 10.604173 	 13.964337 
O 	 1.614838 	 13.042812 	 10.154804 
O 	 4.673668 	 11.284125 	 9.070935 
O 	 1.833343 	 11.906475 	 3.146201 
O 	 3.106139 	 3.379735 	 3.462551 
O 	 3.126592 	 3.829976 	 14.874959 
O 	 8.088103 	 6.132702 	 6.036919 
O 	 13.411588 	 3.675432 	 8.990368 
O 	 9.254360 	 14.212314 	 2.385675 
O 	 8.349840 	 5.359046 	 9.746335 
O 	 9.828061 	 13.343575 	 11.877782 
O 	 5.007654 	 14.822500 	 2.771620 
O 	 4.557003 	 8.188733 	 0.818426 
O 	 2.488447 	 5.164967 	 10.632130 
O 	 4.671772 	 6.511080 	 11.698004 
O 	 6.196774 	 3.051041 	 0.081500 
O 	 6.171849 	 7.426893 	 9.615994 
O 	 4.750612 	 1.382900 	 5.133149 
O 	 12.772456 	 13.641978 	 6.564664 
O 	 11.610351 	 1.418172 	 1.317470 
O 	 7.291178 	 9.623938 	 11.084407 
O 	 13.386782 	 13.790246 	 14.759162 
O 	 0.415727 	 10.620599 	 5.849455 
O 	 14.248447 	 6.318425 	 7.574297 
O 	 0.507042 	 1.292651 	 9.626093 
O 	 10.011966 	 10.726135 	 13.793762 
O 	 14.253656 	 9.499090 	 8.106565 
O 	 5.857096 	 4.140927 	 2.583615 
O 	 12.578849 	 5.690852 	 10.534030 
O 	 7.033793 	 12.283649 	 10.458830 
O 	 11.375340 	 9.291354 	 1.283699 
O 	 2.389708 	 13.676648 	 7.429637 
O 	 2.888953 	 7.659829 	 8.702799 
O 	 5.816707 	 10.310522 	 3.724258 
O 	 6.610363 	 4.998615 	 13.215436 
O 	 4.053577 	 13.353308 	 11.376812 
O 	 14.344900 	 7.071168 	 13.494393 
O 	 14.882700 	 14.113456 	 3.020627 
O 	 3.822357 	 8.624299 	 13.192309 
O 	 0.109553 	 5.511078 	 4.090156 
O 	 6.505791 	 6.915671 	 3.291285 
O 	 9.600036 	 3.185766 	 14.672882 
O 	 13.197722 	 3.099311 	 5.457843 
O 	 0.298036 	 3.630301 	 1.328779 
O 	 6.627718 	 0.394016 	 11.759251 
O 	 6.567407 	 2.586702 	 7.004865 
O 	 2.203814 	 4.754412 	 5.788199 
O 	 10.215585 	 11.926808 	 9.209893 
O 	 2.556897 	 0.613743 	 1.545025 
O 	 1.518799 	 9.339054 	 2.597498 
O 	 11.541673 	 1.174281 	 7.009522 
O 	 12.720832 	 12.872233 	 9.215695 
O 	 10.402428 	 11.388047 	 6.198234 
O 	 4.518439 	 0.671282 	 13.960384 
O 	 11.786826 	 13.870733 	 3.778196 
O 	 1.431386 	 0.160752 	 12.264852 
O 	 1.475249 	 10.063587 	 10.025675 
O 	 5.233919 	 13.506061 	 7.453391 
O 	 7.638896 	 8.436271 	 1.109225 
O 	 6.001675 	 4.166255 	 10.078894 
O 	 8.125918 	 3.602742 	 4.253231 
O 	 6.343360 	 13.265279 	 13.370061 
O 	 9.021170 	 6.612037 	 12.328012 
O 	 11.505928 	 0.856065 	 12.756975 
O 	 13.299310 	 5.936835 	 1.377932 
O 	 8.614241 	 11.951798 	 3.909151 
O 	 1.353781 	 7.706599 	 5.853859 
O 	 11.491299 	 5.397254 	 3.175529 
O 	 1.335427 	 12.732434 	 0.120129 
O 	 8.760341 	 2.113287 	 12.119651 
O 	 13.532259 	 11.586534 	 2.143643 
O 	 7.490638 	 8.912789 	 5.656872 
O 	 0.425155 	 7.047355 	 11.014442 
O 	 0.526320 	 13.274992 	 5.664887 
O 	 4.798612 	 5.087896 	 6.874449 
O 	 13.942117 	 1.792468 	 14.591428 
O 	 5.266267 	 7.655583 	 7.062062 
O 	 11.722383 	 7.995304 	 8.991882 
O 	 11.089582 	 2.697671 	 3.817848 
O 	 11.594394 	 4.906936 	 13.392977 
O 	 9.977325 	 1.550290 	 9.557392 
K 	 8.880084 	 3.562753 	 7.365126 
