333
conformation = 32
H 	 5.545711 	 -4.994655 	 3.728781 
H 	 4.609614 	 -3.777748 	 3.659371 
H 	 2.017169 	 -4.559885 	 0.682219 
H 	 2.990426 	 -4.621691 	 -0.367729 
H 	 0.558444 	 -7.453553 	 3.854957 
H 	 0.698446 	 -6.708229 	 2.490667 
H 	 -1.853140 	 -1.045965 	 -5.337502 
H 	 -3.385663 	 -0.926916 	 -5.013555 
H 	 -2.097260 	 2.631577 	 -4.752821 
H 	 -1.027071 	 1.905643 	 -5.651272 
H 	 2.534866 	 -2.456453 	 0.754604 
H 	 2.022283 	 -1.077997 	 1.147323 
H 	 5.464146 	 -1.233464 	 -0.444043 
H 	 5.982259 	 -2.384854 	 0.411120 
H 	 7.304816 	 -2.091393 	 2.872848 
H 	 6.004200 	 -1.286201 	 3.136755 
H 	 7.342549 	 2.825300 	 -1.585915 
H 	 5.971185 	 2.264509 	 -1.975575 
H 	 -5.488419 	 -3.491161 	 -2.649295 
H 	 -4.128139 	 -3.973548 	 -2.901037 
H 	 3.267773 	 -6.750976 	 2.427539 
H 	 2.478434 	 -5.618302 	 3.262088 
H 	 5.259472 	 6.455288 	 2.718409 
H 	 3.972167 	 6.221800 	 1.878111 
H 	 -6.880921 	 -4.649518 	 5.066841 
H 	 -7.169305 	 -6.185990 	 4.902865 
H 	 -3.432221 	 -7.318052 	 -6.686744 
H 	 -3.946880 	 6.196190 	 -7.111406 
H 	 -2.258907 	 -1.649934 	 7.388139 
H 	 -1.992621 	 -1.495107 	 5.865640 
H 	 7.375576 	 -6.089028 	 -7.391127 
H 	 -7.365742 	 -7.662661 	 -7.419200 
H 	 -4.457097 	 -4.465239 	 5.642512 
H 	 -3.889829 	 -3.040362 	 6.030151 
H 	 3.080797 	 -1.848556 	 4.551076 
H 	 3.120122 	 -2.029784 	 3.043936 
H 	 -3.739825 	 5.692066 	 -5.395155 
H 	 -3.647583 	 4.277821 	 -4.877800 
H 	 4.947660 	 5.623753 	 -3.758363 
H 	 3.818885 	 4.538417 	 -3.720010 
H 	 6.061707 	 -1.027959 	 -4.640766 
H 	 4.803893 	 -1.283942 	 -3.732321 
H 	 1.073198 	 1.024402 	 -6.599666 
H 	 0.347152 	 -0.295873 	 -6.024367 
H 	 1.422452 	 5.395419 	 -6.077832 
H 	 1.256407 	 6.561100 	 -5.074416 
H 	 -7.207610 	 -0.720405 	 -1.113098 
H 	 -7.220211 	 0.384985 	 -2.170322 
H 	 0.293830 	 -1.265781 	 5.355356 
H 	 -0.254176 	 -1.418537 	 3.991269 
H 	 1.973872 	 4.831903 	 2.723929 
H 	 2.834590 	 3.824326 	 2.144833 
H 	 4.431169 	 -3.635248 	 -2.376312 
H 	 5.952248 	 -3.309384 	 -2.192137 
H 	 -3.512508 	 0.456239 	 0.326641 
H 	 -2.201336 	 0.588784 	 1.168916 
H 	 -7.106411 	 1.305015 	 -5.491844 
H 	 -6.454896 	 2.744496 	 -5.071797 
H 	 6.514755 	 0.651113 	 1.074484 
H 	 5.937634 	 1.199471 	 2.357330 
H 	 -2.272164 	 4.068282 	 1.828986 
H 	 -2.544766 	 2.592678 	 1.430521 
H 	 1.190718 	 6.699961 	 6.144925 
H 	 2.461483 	 6.849837 	 5.383099 
H 	 -6.990542 	 5.683557 	 -5.108333 
H 	 -5.762447 	 5.882539 	 -5.935848 
H 	 -3.059873 	 0.243695 	 4.315326 
H 	 -2.327249 	 -0.824045 	 3.487366 
H 	 5.062414 	 1.032277 	 6.074275 
H 	 5.367543 	 1.842328 	 7.314135 
H 	 1.426464 	 4.508357 	 6.679184 
H 	 3.094047 	 4.479802 	 6.356819 
H 	 -5.310730 	 -0.042070 	 -0.398964 
H 	 -5.437189 	 0.164787 	 1.081427 
H 	 -1.126059 	 3.954033 	 -2.045246 
H 	 -2.131593 	 2.845253 	 -1.726322 
H 	 2.766470 	 -7.041345 	 -3.495116 
H 	 1.372087 	 -6.509364 	 -4.041792 
H 	 7.248535 	 -2.405047 	 6.745280 
H 	 6.914790 	 -2.383776 	 5.207278 
H 	 1.615575 	 2.861853 	 -3.671625 
H 	 0.908089 	 4.124166 	 -4.218001 
H 	 4.031007 	 -1.128628 	 -6.107238 
H 	 2.857205 	 -2.026602 	 -5.836723 
H 	 -6.422306 	 -2.264526 	 -5.801684 
H 	 -6.706741 	 -3.697918 	 -5.217933 
H 	 -4.674342 	 -3.013291 	 3.506453 
H 	 -4.659626 	 -1.587719 	 3.076437 
H 	 -1.970336 	 2.703504 	 7.402786 
H 	 -0.962554 	 1.475205 	 7.463649 
H 	 -3.108142 	 -6.969379 	 5.486234 
H 	 -4.433081 	 -6.964609 	 6.384020 
H 	 -0.151815 	 -3.113447 	 -7.032031 
H 	 0.611182 	 -2.900747 	 -5.798109 
H 	 6.263295 	 6.152909 	 0.213828 
H 	 -7.163365 	 6.220815 	 -0.239243 
H 	 1.237006 	 2.821454 	 4.015829 
H 	 2.527481 	 1.900623 	 3.611810 
H 	 -1.364160 	 6.089483 	 5.056670 
H 	 -1.430839 	 4.924007 	 4.051146 
H 	 -7.180563 	 3.427718 	 6.623254 
H 	 -6.862601 	 2.792248 	 5.195280 
H 	 -6.759833 	 5.831457 	 3.684785 
H 	 7.196166 	 5.114583 	 4.642678 
H 	 -6.979675 	 -3.123803 	 -0.706951 
H 	 7.289883 	 -4.292261 	 -0.005845 
H 	 -1.618630 	 -5.097730 	 3.875014 
H 	 -2.849468 	 -4.195258 	 4.080399 
H 	 2.490221 	 -6.012138 	 -7.276251 
H 	 1.129360 	 -6.448684 	 -6.682775 
H 	 -2.084189 	 5.577940 	 -3.561860 
H 	 -0.671930 	 5.935444 	 -4.003690 
H 	 -4.470712 	 5.327226 	 -0.246043 
H 	 -5.315560 	 4.471586 	 0.762494 
H 	 1.659981 	 -3.737557 	 -3.765112 
H 	 2.861378 	 -4.503505 	 -4.374527 
H 	 -2.540770 	 2.407871 	 3.810014 
H 	 -2.026433 	 2.108867 	 5.228499 
H 	 2.704012 	 0.877975 	 -0.108896 
H 	 3.975707 	 1.750320 	 -0.252546 
H 	 -0.597166 	 -1.514474 	 1.872416 
H 	 -1.285672 	 -2.837135 	 1.326023 
H 	 -1.857734 	 -3.580284 	 -3.656971 
H 	 -2.775379 	 -3.991327 	 -4.858857 
H 	 0.077961 	 6.126357 	 2.000277 
H 	 0.423911 	 4.843937 	 1.225703 
H 	 -2.643787 	 -6.341324 	 -2.511856 
H 	 -2.632566 	 7.108151 	 -1.903718 
H 	 5.318870 	 7.047128 	 4.937298 
H 	 5.238037 	 -7.264926 	 6.379621 
H 	 -3.999972 	 2.221056 	 -6.487023 
H 	 -4.196182 	 1.811879 	 -4.991451 
H 	 0.453602 	 0.805712 	 2.877677 
H 	 -0.985458 	 0.995890 	 3.189252 
H 	 4.756633 	 -6.261962 	 -2.049655 
H 	 3.629035 	 -7.101033 	 -1.216218 
H 	 -5.898607 	 4.748734 	 -2.280329 
H 	 -7.238044 	 4.565389 	 -3.071323 
H 	 -6.984173 	 0.327905 	 3.719164 
H 	 -6.641912 	 -0.682385 	 4.786358 
H 	 -6.133935 	 2.090261 	 2.090284 
H 	 -4.878629 	 1.614746 	 3.002687 
H 	 -0.645403 	 -3.274419 	 -2.030449 
H 	 0.554440 	 -4.064214 	 -1.346169 
H 	 5.050901 	 -4.881386 	 -7.268413 
H 	 4.227882 	 -5.092929 	 6.293756 
H 	 -0.647540 	 -6.386679 	 5.877384 
H 	 -1.463006 	 -7.058372 	 6.981144 
H 	 4.121924 	 4.019028 	 4.329859 
H 	 5.298440 	 4.012431 	 5.279663 
H 	 -4.711387 	 2.767944 	 -1.910808 
H 	 -3.563701 	 2.145516 	 -1.100740 
H 	 0.943393 	 -5.145363 	 5.322679 
H 	 0.598817 	 -3.793635 	 4.802803 
H 	 -3.976142 	 0.079593 	 -7.238708 
H 	 -4.466156 	 0.923449 	 6.428046 
H 	 -4.126527 	 5.389405 	 3.137974 
H 	 -4.585941 	 3.955932 	 2.904808 
H 	 5.961770 	 2.024557 	 -4.203514 
H 	 5.036758 	 0.873534 	 -4.594581 
H 	 1.250063 	 0.143064 	 -3.420819 
H 	 2.264184 	 0.453584 	 -4.440473 
H 	 2.928788 	 5.752678 	 -1.793429 
H 	 3.192218 	 5.491296 	 -0.349706 
H 	 -6.072747 	 -6.388545 	 -0.891566 
H 	 -4.649419 	 -6.847266 	 -0.825775 
H 	 2.887014 	 -2.255579 	 -1.787795 
H 	 2.942424 	 -0.761619 	 -2.246649 
H 	 3.346860 	 1.298806 	 -7.005011 
H 	 2.406502 	 2.537382 	 -7.056354 
H 	 1.928517 	 0.734367 	 5.381385 
H 	 2.471598 	 -0.113875 	 6.588491 
H 	 -1.493648 	 -5.262908 	 -7.175506 
H 	 -1.778350 	 -4.351941 	 6.456055 
H 	 5.056121 	 -4.911678 	 1.694112 
H 	 5.256256 	 -5.506905 	 0.243711 
H 	 -0.404267 	 -7.441168 	 -1.505131 
H 	 0.699479 	 6.979735 	 -0.608580 
H 	 -1.011244 	 -5.555313 	 0.327565 
H 	 -0.785251 	 -4.762228 	 1.679520 
H 	 7.074677 	 -7.635265 	 -2.406261 
H 	 -6.857978 	 -7.115298 	 -3.621400 
H 	 5.104531 	 4.441125 	 -0.995467 
H 	 5.235941 	 4.541160 	 0.557777 
H 	 -0.252745 	 -5.533030 	 -3.232064 
H 	 -0.983428 	 -5.752240 	 -4.572679 
H 	 -2.728141 	 -1.215582 	 -1.035927 
H 	 -3.149091 	 -1.441524 	 -2.512890 
H 	 -5.642396 	 -5.557357 	 3.225341 
H 	 -5.576628 	 -6.366397 	 1.834462 
H 	 -5.347122 	 -5.581670 	 -3.690812 
H 	 -4.860068 	 -6.992397 	 -4.197811 
H 	 -3.988100 	 -4.974280 	 -6.680587 
H 	 -4.868446 	 -3.902975 	 -6.003870 
H 	 6.035959 	 -4.557708 	 -4.527515 
H 	 6.518821 	 -6.014190 	 -4.732220 
H 	 0.850586 	 2.687895 	 0.192762 
H 	 1.472897 	 3.804972 	 -0.639409 
H 	 4.497103 	 -7.252643 	 -5.634545 
H 	 3.523564 	 6.447610 	 -5.929961 
H 	 -0.919890 	 1.009837 	 -2.806578 
H 	 -1.203597 	 -0.437700 	 -2.203234 
H 	 -1.548102 	 5.589081 	 0.247432 
H 	 -2.453757 	 6.584995 	 1.139738 
H 	 0.050274 	 0.637686 	 0.244489 
H 	 0.427515 	 0.497541 	 -1.252880 
H 	 6.693732 	 -0.008143 	 -7.200007 
H 	 -6.611364 	 -0.089905 	 -7.197464 
H 	 4.079651 	 0.029567 	 3.452710 
H 	 3.831444 	 0.888382 	 2.100180 
H 	 -4.574671 	 0.439104 	 -2.868138 
H 	 -5.292756 	 -0.776804 	 -3.398154 
H 	 5.729839 	 4.173853 	 -6.414772 
H 	 6.569611 	 2.959141 	 -6.151574 
H 	 -2.102157 	 -7.239391 	 2.850832 
H 	 -3.631936 	 -6.824336 	 2.710266 
H 	 -4.722043 	 4.523385 	 5.702681 
H 	 -3.249968 	 4.707821 	 6.108135 
H 	 6.355514 	 3.186650 	 1.888224 
H 	 6.672335 	 4.593006 	 2.659521 
H 	 -1.605944 	 -6.925186 	 -5.860924 
O 	 4.626331 	 -4.721706 	 3.751690 
O 	 2.146127 	 -4.151467 	 -0.182617 
O 	 0.029085 	 -7.200701 	 3.029666 
O 	 -2.704502 	 -0.771939 	 -5.701415 
O 	 -1.131195 	 2.534154 	 -4.917669 
O 	 2.148277 	 -1.970507 	 1.508338 
O 	 6.244028 	 -1.476359 	 0.105105 
O 	 6.420051 	 -2.161421 	 3.229825 
O 	 6.731808 	 2.072848 	 -1.400697 
O 	 -4.891401 	 -4.146335 	 -2.299472 
O 	 2.472601 	 -6.165608 	 2.445400 
O 	 4.715678 	 6.847890 	 2.006553 
O 	 -7.139190 	 -5.314798 	 4.412668 
O 	 -4.286839 	 7.022053 	 -6.709553 
O 	 -2.684088 	 -1.597106 	 6.520254 
O 	 7.168088 	 -6.883443 	 7.011009 
O 	 -4.350891 	 -3.568895 	 5.285275 
O 	 3.702637 	 -1.866535 	 3.822324 
O 	 -3.447804 	 5.207336 	 -4.577482 
O 	 4.411952 	 5.066261 	 -3.167927 
O 	 5.096440 	 -1.052496 	 -4.645251 
O 	 0.225286 	 0.483709 	 -6.579856 
O 	 0.756051 	 5.985161 	 -5.687383 
O 	 -6.775919 	 -0.438460 	 -1.937227 
O 	 -0.281337 	 -1.857628 	 4.838746 
O 	 2.920997 	 4.601909 	 2.719079 
O 	 5.319526 	 -3.579069 	 -2.868865 
O 	 -2.589623 	 0.869127 	 0.297644 
O 	 -7.000199 	 1.956884 	 -4.754239 
O 	 6.781102 	 1.228331 	 1.824552 
O 	 -2.083148 	 3.129839 	 2.094908 
O 	 1.543773 	 6.550733 	 5.232797 
O 	 -6.588667 	 5.356975 	 -5.952817 
O 	 -3.207710 	 -0.430797 	 3.603655 
O 	 5.148952 	 0.928892 	 7.045317 
O 	 2.354154 	 4.354707 	 7.008700 
O 	 -5.119048 	 -0.478731 	 0.430368 
O 	 -1.267368 	 3.190476 	 -1.428765 
O 	 2.191655 	 -7.033131 	 -4.263863 
O 	 7.267797 	 -2.927946 	 5.928729 
O 	 1.680762 	 3.834012 	 -3.723909 
O 	 3.256646 	 -1.482127 	 -6.516771 
O 	 -6.323622 	 -2.822801 	 -5.031395 
O 	 -5.093502 	 -2.447914 	 2.824805 
O 	 -1.207287 	 2.317283 	 6.973273 
O 	 -4.090479 	 -6.777106 	 5.474040 
O 	 -0.174340 	 -2.504329 	 -6.252606 
O 	 6.844700 	 6.322882 	 -0.574880 
O 	 1.580385 	 2.108217 	 3.437188 
O 	 -1.882541 	 5.301245 	 4.810996 
O 	 -6.913273 	 3.595351 	 5.715664 
O 	 7.184284 	 5.799898 	 3.938618 
O 	 -6.861540 	 -4.095195 	 -0.597515 
O 	 -2.209826 	 -4.501048 	 3.380099 
O 	 1.621741 	 -6.396645 	 7.362315 
O 	 -1.209703 	 5.875746 	 -3.168319 
O 	 -5.110026 	 4.597589 	 -0.182144 
O 	 2.549166 	 -3.602840 	 -4.131550 
O 	 -2.863213 	 2.082272 	 4.687140 
O 	 3.606379 	 1.015396 	 0.285170 
O 	 -1.418314 	 -1.899059 	 1.541449 
O 	 -2.587562 	 -4.153355 	 -3.912742 
O 	 -0.105200 	 5.149342 	 2.015173 
O 	 -2.892348 	 -6.859803 	 -1.738665 
O 	 4.719325 	 7.123321 	 5.715387 
O 	 -3.996622 	 2.569591 	 -5.558096 
O 	 -0.415003 	 0.326616 	 2.759577 
O 	 3.968315 	 -6.211901 	 -1.472228 
O 	 -6.453152 	 4.097689 	 -2.749083 
O 	 -6.547997 	 0.293552 	 4.609854 
O 	 -5.163069 	 2.194086 	 2.258783 
O 	 0.264263 	 -3.551025 	 -2.134542 
O 	 4.266542 	 -5.282022 	 7.279182 
O 	 -1.273831 	 -7.109262 	 5.980548 
O 	 4.379547 	 3.712276 	 5.209049 
O 	 -4.054108 	 2.041410 	 -1.928945 
O 	 1.273764 	 -4.486951 	 4.683026 
O 	 -4.733711 	 0.519615 	 7.275980 
O 	 -4.929512 	 4.848540 	 3.094059 
O 	 5.068680 	 1.710479 	 -4.107041 
O 	 2.154826 	 0.473746 	 -3.463538 
O 	 2.720058 	 6.150650 	 -0.930680 
O 	 -5.486541 	 -6.938364 	 -0.330416 
O 	 3.442623 	 -1.438894 	 -1.698907 
O 	 2.433301 	 1.601924 	 -6.799703 
O 	 1.986485 	 -0.180998 	 5.750216 
O 	 -1.065835 	 -4.523748 	 7.110560 
O 	 5.518482 	 -4.758959 	 0.833016 
O 	 0.005884 	 -7.245822 	 -0.641564 
O 	 -0.838947 	 -4.672818 	 0.711592 
O 	 7.199766 	 -7.625912 	 -3.381082 
O 	 4.611422 	 4.322214 	 -0.174091 
O 	 -0.067431 	 -5.903525 	 -4.152682 
O 	 -2.531459 	 -1.788714 	 -1.828130 
O 	 -5.192080 	 -5.644542 	 2.354769 
O 	 -5.527578 	 -6.297628 	 -4.312614 
O 	 -4.024836 	 -4.017469 	 -6.553254 
O 	 6.386012 	 -5.150091 	 -5.223427 
O 	 1.421370 	 3.466212 	 0.267524 
O 	 4.376397 	 6.689335 	 -5.536226 
O 	 -0.518875 	 0.144644 	 -2.637752 
O 	 -2.431202 	 5.908046 	 0.405955 
O 	 0.825303 	 0.722733 	 -0.354114 
O 	 7.485796 	 -0.387352 	 -6.725663 
O 	 4.175960 	 0.940708 	 3.049507 
O 	 -4.455208 	 -0.307686 	 -3.498366 
O 	 6.113018 	 3.390953 	 -6.899947 
O 	 -2.984229 	 -7.555078 	 2.585278 
O 	 -4.167716 	 4.566695 	 6.473064 
O 	 6.611300 	 4.110139 	 1.814489 
O 	 -2.231909 	 -6.546035 	 -6.520146 
K 	 -3.865436 	 -3.642383 	 0.525981 
