333
conformation = 13
H 	 -6.559799 	 3.911994 	 -3.237620 
H 	 -7.374826 	 5.281238 	 -3.328145 
H 	 4.636871 	 3.378559 	 -6.318316 
H 	 5.086245 	 3.427959 	 7.082537 
H 	 1.769335 	 2.063690 	 -4.180571 
H 	 3.349136 	 1.996401 	 -4.153528 
H 	 0.204128 	 -6.516843 	 2.315014 
H 	 -1.274205 	 -6.556115 	 2.875360 
H 	 -0.172849 	 -3.362225 	 3.703836 
H 	 0.365496 	 -4.678261 	 3.255982 
H 	 4.155806 	 5.948742 	 -6.333278 
H 	 3.558247 	 7.239908 	 -5.615899 
H 	 -7.404046 	 -7.522843 	 -7.338855 
H 	 -7.093281 	 6.129033 	 -6.477514 
H 	 -4.615851 	 6.552289 	 -4.197663 
H 	 -5.927021 	 7.366261 	 -4.434657 
H 	 -4.733514 	 -3.708785 	 6.232687 
H 	 -6.158273 	 -4.253915 	 5.824588 
H 	 -3.085515 	 5.047413 	 4.885005 
H 	 -1.562159 	 4.951576 	 5.211539 
H 	 5.927660 	 2.333702 	 -4.758831 
H 	 5.333861 	 3.595204 	 -4.156963 
H 	 -7.005403 	 0.716277 	 -5.898879 
H 	 6.879676 	 0.621377 	 -4.710581 
H 	 -4.719003 	 3.682092 	 -2.032000 
H 	 -5.091149 	 2.239850 	 -2.231014 
H 	 -0.936921 	 0.972481 	 1.341487 
H 	 -2.069305 	 0.253503 	 0.396793 
H 	 0.738437 	 7.208045 	 0.282993 
H 	 0.911075 	 7.039296 	 -1.257564 
H 	 -4.908524 	 2.171869 	 0.359957 
H 	 -4.719143 	 0.681723 	 0.630782 
H 	 -1.877433 	 4.320461 	 -1.771166 
H 	 -1.325976 	 5.764690 	 -1.221342 
H 	 5.499876 	 6.765752 	 -2.801901 
H 	 5.659142 	 6.650773 	 -4.320389 
H 	 -1.178380 	 -0.296224 	 3.060028 
H 	 -0.936421 	 -1.714240 	 2.259284 
H 	 7.020910 	 -1.221681 	 3.505888 
H 	 6.385394 	 -2.357989 	 4.267513 
H 	 -5.907849 	 -7.226464 	 2.243915 
H 	 -7.074217 	 6.835934 	 2.861516 
H 	 2.714507 	 -5.335920 	 1.478946 
H 	 2.631551 	 -6.942052 	 1.497463 
H 	 3.985292 	 -0.153314 	 1.703298 
H 	 3.370976 	 0.316492 	 3.034199 
H 	 -5.493499 	 -7.392040 	 5.931156 
H 	 -5.075803 	 -5.880400 	 6.083006 
H 	 2.802194 	 6.602673 	 -2.360626 
H 	 1.988505 	 -7.190331 	 -3.169397 
H 	 4.796494 	 -0.606832 	 -4.069082 
H 	 5.258519 	 -1.452264 	 -5.311316 
H 	 -7.292286 	 5.947374 	 5.884318 
H 	 -6.300563 	 4.814167 	 6.371601 
H 	 -0.929776 	 -5.881505 	 -6.166839 
H 	 0.374993 	 -6.052380 	 -5.382996 
H 	 -5.347924 	 -5.133577 	 2.571383 
H 	 -4.498329 	 -3.889287 	 3.062223 
H 	 -6.465083 	 -5.694876 	 -5.796487 
H 	 -6.679316 	 -5.429880 	 -4.329438 
H 	 0.595319 	 -2.421552 	 -4.948687 
H 	 -0.291634 	 -3.547909 	 -5.473997 
H 	 3.817306 	 0.758532 	 -1.451391 
H 	 5.235554 	 0.778797 	 -1.999035 
H 	 -5.316084 	 0.144304 	 2.467218 
H 	 -3.759250 	 -0.234687 	 2.256403 
H 	 -0.967163 	 -6.046048 	 -3.534181 
H 	 -1.136931 	 -6.967782 	 -2.270235 
H 	 7.309603 	 -5.637415 	 -0.950396 
H 	 -7.376422 	 -4.870373 	 0.354614 
H 	 4.473172 	 -1.187719 	 -0.764580 
H 	 5.556185 	 -2.248572 	 -0.312114 
H 	 -3.877407 	 -6.291888 	 -6.877105 
H 	 -3.024512 	 -5.595077 	 -5.818687 
H 	 0.989292 	 -2.298024 	 6.349718 
H 	 0.048189 	 -3.425412 	 6.683841 
H 	 5.030144 	 2.470280 	 4.634768 
H 	 3.552644 	 2.452081 	 4.035671 
H 	 -4.880723 	 6.569130 	 0.172577 
H 	 -4.883663 	 5.995064 	 -1.253116 
H 	 4.282505 	 -3.688135 	 4.663190 
H 	 3.538847 	 -2.760091 	 3.806633 
H 	 5.717590 	 6.996296 	 0.170923 
H 	 5.632295 	 6.014817 	 1.464010 
H 	 -4.865914 	 6.372306 	 3.380436 
H 	 -4.512304 	 4.874543 	 3.191676 
H 	 -2.358757 	 6.855474 	 -4.170398 
H 	 -3.167747 	 6.964023 	 -5.384290 
H 	 1.659062 	 -2.949321 	 -0.063532 
H 	 1.062964 	 -4.262252 	 0.499379 
H 	 -0.906109 	 2.699580 	 -1.710858 
H 	 -2.054435 	 1.997360 	 -0.940830 
H 	 2.123762 	 5.339441 	 1.804560 
H 	 3.459482 	 6.026388 	 1.510643 
H 	 -5.734431 	 0.729606 	 6.629549 
H 	 -4.585341 	 0.695379 	 -7.196381 
H 	 3.842102 	 -3.137031 	 -3.312291 
H 	 4.833298 	 -4.339494 	 -3.282926 
H 	 0.988836 	 0.118730 	 -2.022474 
H 	 1.251943 	 -1.252731 	 -2.797199 
H 	 -5.342288 	 -2.808016 	 -0.140403 
H 	 -4.852549 	 -2.972687 	 -1.643432 
H 	 -4.453788 	 -0.324071 	 -3.391208 
H 	 -5.381600 	 -0.801450 	 -2.270787 
H 	 -4.536261 	 5.551982 	 7.476084 
H 	 -5.241221 	 4.470588 	 -6.522308 
H 	 -0.017139 	 3.346497 	 -3.930832 
H 	 0.152038 	 4.468108 	 -2.938132 
H 	 4.314170 	 2.943706 	 0.755048 
H 	 3.132879 	 2.139160 	 1.295203 
H 	 0.506138 	 -0.291159 	 4.776361 
H 	 1.724886 	 -1.283896 	 4.627553 
H 	 -2.143434 	 -1.272884 	 -6.656150 
H 	 -3.721797 	 -1.403501 	 -6.639913 
H 	 4.274494 	 5.187987 	 3.930943 
H 	 5.394958 	 4.373154 	 3.422227 
H 	 -0.639861 	 -3.685225 	 -2.993484 
H 	 -0.078864 	 -3.918896 	 -1.567069 
H 	 4.990479 	 -5.244213 	 -6.436403 
H 	 5.940004 	 -4.025392 	 -6.599408 
H 	 1.168027 	 6.028731 	 -4.837656 
H 	 1.604898 	 5.676223 	 -6.232339 
H 	 0.794314 	 5.727897 	 3.782276 
H 	 -0.466593 	 5.030031 	 3.128130 
H 	 2.272679 	 -0.521121 	 -4.645838 
H 	 2.989611 	 -1.678695 	 -5.395099 
H 	 -0.781321 	 1.796707 	 5.533462 
H 	 -0.227229 	 1.151963 	 6.800230 
H 	 -6.966752 	 1.226701 	 -1.297599 
H 	 7.132079 	 2.285155 	 -1.859634 
H 	 -2.414474 	 -4.278849 	 1.763876 
H 	 -2.456049 	 -4.836152 	 3.270041 
H 	 2.536796 	 -4.895831 	 -3.565450 
H 	 0.920419 	 -5.123160 	 -3.420409 
H 	 7.126584 	 2.664650 	 5.963617 
H 	 6.103723 	 1.581163 	 6.392010 
H 	 -3.301793 	 -1.739109 	 6.041610 
H 	 -2.895173 	 -1.593500 	 4.609393 
H 	 -4.696549 	 -6.591252 	 -2.988390 
H 	 -3.663049 	 -5.670910 	 -2.346927 
H 	 -3.235344 	 -3.423547 	 -5.368874 
H 	 -3.888022 	 -4.180978 	 -4.223589 
H 	 1.694949 	 5.544935 	 6.187804 
H 	 2.819762 	 4.509226 	 6.235040 
H 	 6.880916 	 3.515792 	 1.295272 
H 	 7.391214 	 4.413030 	 0.287102 
H 	 1.581030 	 2.548913 	 -1.106606 
H 	 0.781584 	 1.471822 	 -0.168114 
H 	 6.434572 	 -2.807008 	 -2.848255 
H 	 7.026450 	 -1.390220 	 -2.624506 
H 	 -2.412589 	 -3.578043 	 5.912284 
H 	 -2.289432 	 -4.594418 	 7.110408 
H 	 3.826104 	 3.946006 	 -1.755429 
H 	 2.852110 	 4.506346 	 -2.833095 
H 	 -1.373257 	 -5.974444 	 0.070982 
H 	 -2.090530 	 -4.929174 	 -0.891338 
H 	 -1.867062 	 -0.188544 	 -4.022817 
H 	 -2.198909 	 -1.664981 	 -4.041426 
H 	 -6.971020 	 -4.406426 	 4.022362 
H 	 6.678522 	 -5.218223 	 4.460616 
H 	 3.555664 	 -6.229840 	 4.782449 
H 	 4.225442 	 -5.586708 	 3.552161 
H 	 5.615381 	 -0.374899 	 5.589050 
H 	 6.135086 	 -0.695039 	 6.972539 
H 	 -3.670948 	 2.620544 	 7.198796 
H 	 -2.361407 	 1.799181 	 6.969718 
H 	 5.741842 	 5.891509 	 6.441764 
H 	 5.205005 	 7.033170 	 5.593746 
H 	 5.286449 	 -4.795781 	 1.374572 
H 	 4.438183 	 -3.526360 	 1.055890 
H 	 3.232610 	 -6.194285 	 -1.571943 
H 	 4.760897 	 -5.970035 	 -1.268972 
H 	 1.268158 	 3.587374 	 0.858953 
H 	 0.136225 	 4.626575 	 0.738310 
H 	 7.160322 	 4.162360 	 -5.264318 
H 	 6.778598 	 4.120132 	 -6.787574 
H 	 2.267277 	 1.048282 	 6.312105 
H 	 3.507968 	 0.570029 	 7.141150 
H 	 1.412873 	 3.157941 	 7.467608 
H 	 1.854256 	 2.887600 	 -5.973131 
H 	 -6.131994 	 0.280029 	 4.417193 
H 	 -5.025242 	 1.363994 	 4.217905 
H 	 7.087881 	 -2.735733 	 6.722283 
H 	 -6.685144 	 -2.516073 	 -7.172852 
H 	 1.371952 	 3.569509 	 3.965170 
H 	 0.977080 	 2.377732 	 3.084216 
H 	 -0.095641 	 -7.281790 	 7.454447 
H 	 -0.933186 	 7.216472 	 6.192671 
H 	 -3.519610 	 2.957910 	 -4.208031 
H 	 -3.143183 	 1.942145 	 -5.299731 
H 	 -2.453399 	 2.833227 	 4.477360 
H 	 -2.403565 	 1.801997 	 3.335979 
H 	 -1.923599 	 3.619031 	 1.509041 
H 	 -2.318552 	 5.168268 	 1.618517 
H 	 -7.041438 	 4.299822 	 4.068546 
H 	 -7.306580 	 3.017439 	 3.412397 
H 	 3.366706 	 -3.355647 	 7.555502 
H 	 3.944482 	 -2.112084 	 6.869148 
H 	 6.396803 	 0.587309 	 1.936747 
H 	 7.461800 	 0.508390 	 0.857050 
H 	 1.339994 	 -4.983380 	 5.295664 
H 	 1.027336 	 -6.484230 	 5.804629 
H 	 0.131063 	 -1.263820 	 -7.225264 
H 	 -0.306666 	 -0.305367 	 -6.097001 
H 	 2.295842 	 -6.048457 	 -6.138181 
H 	 2.682964 	 -5.842394 	 7.307436 
H 	 -5.481817 	 -6.245238 	 0.365679 
H 	 -3.909972 	 -5.982115 	 0.742039 
H 	 6.187091 	 -6.241749 	 -3.476621 
H 	 6.282951 	 -5.120239 	 -4.581600 
H 	 -2.391296 	 -5.644459 	 5.443467 
H 	 -3.289701 	 -6.736269 	 4.894883 
H 	 -7.393445 	 -2.453060 	 1.101277 
H 	 -6.379352 	 -3.268651 	 2.039495 
H 	 -0.232611 	 0.856550 	 -3.377495 
H 	 -1.419361 	 1.747859 	 -3.841103 
H 	 -2.565238 	 -1.901381 	 -0.383335 
H 	 -1.117143 	 -1.453262 	 -0.527747 
H 	 -5.546945 	 -3.495459 	 -5.462641 
H 	 -5.790244 	 -2.030373 	 -5.076921 
H 	 0.975354 	 0.708689 	 1.847782 
O 	 -7.391866 	 4.313910 	 -3.456622 
O 	 4.692934 	 3.975054 	 -7.101007 
O 	 2.529389 	 1.644669 	 -4.601377 
O 	 -0.736016 	 -6.740626 	 2.093323 
O 	 0.683382 	 -3.833675 	 3.641095 
O 	 4.343523 	 6.683918 	 -5.694702 
O 	 -6.762331 	 7.043565 	 -6.680877 
O 	 -5.473027 	 6.777006 	 -3.812738 
O 	 -5.497262 	 -4.227217 	 6.538781 
O 	 -2.442144 	 4.629267 	 5.521357 
O 	 5.127428 	 2.856975 	 -4.738275 
O 	 7.104964 	 1.145798 	 -5.513822 
O 	 -5.018728 	 3.059579 	 -2.756486 
O 	 -1.956626 	 0.942045 	 1.052677 
O 	 0.207407 	 7.218600 	 -0.536819 
O 	 -4.909631 	 1.298451 	 -0.115790 
O 	 -1.637771 	 5.261850 	 -2.006455 
O 	 6.185350 	 6.888177 	 -3.509925 
O 	 -1.056731 	 -1.262740 	 3.141301 
O 	 6.939429 	 -1.562436 	 4.406108 
O 	 -6.263383 	 7.302884 	 3.087825 
O 	 2.149368 	 -6.120905 	 1.689946 
O 	 3.263120 	 -0.344686 	 2.335801 
O 	 -4.734620 	 -6.788662 	 6.059265 
O 	 1.921745 	 6.837694 	 -2.734442 
O 	 5.554496 	 -1.146967 	 -4.419279 
O 	 -6.796620 	 5.127343 	 5.577210 
O 	 0.021101 	 -5.625661 	 -6.192591 
O 	 -5.416079 	 -4.261791 	 3.078022 
O 	 -6.014486 	 -5.282960 	 -5.019082 
O 	 -0.268293 	 -2.848179 	 -4.789865 
O 	 4.435343 	 0.231644 	 -2.024671 
O 	 -4.699243 	 -0.497548 	 2.076032 
O 	 -1.516425 	 -6.757537 	 -3.147694 
O 	 7.354313 	 -5.777110 	 0.012482 
O 	 4.823572 	 -1.685735 	 -0.011974 
O 	 -2.948324 	 -6.233165 	 -6.560509 
O 	 0.889299 	 -3.030504 	 6.985185 
O 	 4.505413 	 2.278273 	 3.823507 
O 	 -5.303301 	 5.887934 	 -0.377229 
O 	 4.046772 	 -2.741855 	 4.654899 
O 	 5.255564 	 6.810214 	 1.031713 
O 	 -4.108569 	 5.766965 	 3.251029 
O 	 -3.003106 	 6.291550 	 -4.687977 
O 	 1.383836 	 -3.860079 	 -0.349539 
O 	 -1.904493 	 2.620303 	 -1.681583 
O 	 2.728895 	 6.032775 	 2.133975 
O 	 -5.555750 	 0.581622 	 -7.329152 
O 	 3.905928 	 -4.057457 	 -3.045960 
O 	 0.550101 	 -0.683689 	 -2.400073 
O 	 -4.725074 	 -2.454053 	 -0.821436 
O 	 -5.396976 	 -0.320981 	 -3.109035 
O 	 -4.528648 	 4.603952 	 -7.208803 
O 	 0.635558 	 4.049124 	 -3.669201 
O 	 3.533633 	 2.417174 	 0.446286 
O 	 1.311535 	 -0.642947 	 5.217161 
O 	 -2.905803 	 -1.820650 	 -6.975829 
O 	 5.211241 	 5.285959 	 3.673576 
O 	 -0.692018 	 -4.317367 	 -2.225372 
O 	 5.932800 	 -4.972171 	 -6.358543 
O 	 1.046422 	 6.339447 	 -5.763267 
O 	 -0.059779 	 5.308269 	 3.993189 
O 	 2.365390 	 -1.502847 	 -4.673708 
O 	 -0.427556 	 2.049648 	 6.414170 
O 	 7.084684 	 1.327733 	 -1.761178 
O 	 -2.367620 	 -4.002642 	 2.708707 
O 	 1.745931 	 -5.467409 	 -3.786436 
O 	 6.186275 	 2.489673 	 5.974798 
O 	 -3.520632 	 -2.100905 	 5.161216 
O 	 -4.605173 	 -5.688156 	 -2.569663 
O 	 -3.097803 	 -4.206685 	 -4.809852 
O 	 2.333521 	 5.061453 	 5.632583 
O 	 6.821370 	 3.649707 	 0.321764 
O 	 0.989430 	 1.764466 	 -1.171598 
O 	 6.843284 	 -2.221848 	 -2.158511 
O 	 -1.848726 	 -4.296952 	 6.290379 
O 	 3.763596 	 4.562108 	 -2.493748 
O 	 -2.226981 	 -5.580239 	 -0.194387 
O 	 -2.642738 	 -0.795698 	 -4.174238 
O 	 7.219503 	 -4.412314 	 4.703388 
O 	 4.393936 	 -5.853395 	 4.480131 
O 	 5.424730 	 -0.168980 	 6.528494 
O 	 -3.255958 	 1.755943 	 7.384144 
O 	 5.696133 	 6.866985 	 6.437689 
O 	 4.465217 	 -4.334895 	 1.633276 
O 	 4.099239 	 -6.601496 	 -1.587328 
O 	 1.052881 	 4.433407 	 0.431074 
O 	 -7.402957 	 4.343546 	 -6.167207 
O 	 2.738359 	 1.198757 	 7.162095 
O 	 1.376500 	 3.548613 	 -6.536816 
O 	 -5.958709 	 1.237747 	 4.537272 
O 	 7.269418 	 -2.377192 	 -7.278944 
O 	 1.552901 	 2.622400 	 3.871873 
O 	 -0.162968 	 6.941104 	 6.741539 
O 	 -2.861714 	 2.796215 	 -4.909734 
O 	 -2.630443 	 1.888563 	 4.284240 
O 	 -1.566420 	 4.562446 	 1.559549 
O 	 -7.042412 	 3.901967 	 3.192899 
O 	 3.890685 	 -2.547074 	 -7.141738 
O 	 7.341498 	 0.350126 	 1.820407 
O 	 1.493081 	 -5.950544 	 5.124141 
O 	 -0.416537 	 -0.467355 	 -7.074248 
O 	 3.037735 	 -5.707698 	 -6.679720 
O 	 -4.754570 	 -6.432373 	 1.023237 
O 	 6.289233 	 -5.273134 	 -3.625293 
O 	 -2.390042 	 -6.326742 	 4.731785 
O 	 -6.792290 	 -3.192094 	 1.155530 
O 	 -0.655917 	 1.254319 	 -4.161794 
O 	 -1.678125 	 -1.974101 	 0.069954 
O 	 -5.205212 	 -2.599716 	 -5.636215 
O 	 0.405027 	 1.412860 	 1.488904 
K 	 -1.376180 	 4.662158 	 -6.465573 
