333
conformation = 50
H 	 -7.505906 	 -7.542745 	 -7.321982 
H 	 6.100169 	 -6.663178 	 7.498454 
H 	 3.883367 	 -7.455269 	 3.932706 
H 	 4.811646 	 -6.865496 	 2.744012 
H 	 1.707713 	 4.965689 	 6.404230 
H 	 1.313050 	 6.212827 	 5.517538 
H 	 -0.757476 	 -4.504088 	 -2.531074 
H 	 -1.761424 	 -3.432486 	 -1.961325 
H 	 0.459471 	 0.536924 	 -1.500610 
H 	 0.910783 	 -0.628455 	 -2.403140 
H 	 3.747938 	 -5.000515 	 4.241179 
H 	 3.362778 	 -3.473805 	 4.024007 
H 	 6.529820 	 -3.907088 	 2.575973 
H 	 7.346699 	 -4.450974 	 3.809343 
H 	 -5.803788 	 -5.016851 	 5.880348 
H 	 -7.116155 	 -4.224174 	 6.282379 
H 	 -7.259194 	 -0.010500 	 0.914688 
H 	 7.313165 	 -1.095780 	 2.042096 
H 	 -3.680168 	 -6.079764 	 0.279326 
H 	 -2.266463 	 -6.821966 	 0.281204 
H 	 4.502034 	 5.709676 	 5.318675 
H 	 3.670455 	 6.831306 	 5.789320 
H 	 6.480641 	 4.492363 	 6.514001 
H 	 5.435781 	 3.809944 	 5.607502 
H 	 -5.374366 	 -7.068862 	 -7.019494 
H 	 -5.410310 	 6.336217 	 -6.484950 
H 	 -1.829414 	 4.798193 	 -3.613237 
H 	 -2.622780 	 3.465213 	 -4.178267 
H 	 -1.352669 	 -3.905534 	 -4.463179 
H 	 -1.141128 	 -3.862845 	 -5.952319 
H 	 -6.385460 	 5.888372 	 -4.226389 
H 	 -5.739324 	 4.556936 	 -4.230182 
H 	 -3.082682 	 7.251817 	 -6.609875 
H 	 -3.032909 	 -6.508884 	 -5.532714 
H 	 4.829252 	 -4.076727 	 -7.015357 
H 	 4.429616 	 -4.678547 	 6.534681 
H 	 -2.561000 	 2.978943 	 -1.635055 
H 	 -2.512980 	 1.713407 	 -0.627434 
H 	 6.599877 	 2.742000 	 -0.527137 
H 	 5.257303 	 2.416289 	 0.045573 
H 	 6.680744 	 -3.592906 	 -1.643748 
H 	 6.885435 	 -4.771800 	 -0.671280 
H 	 1.950278 	 -2.737214 	 -4.236069 
H 	 1.193826 	 -3.028499 	 -3.000650 
H 	 2.122469 	 2.534781 	 -2.793384 
H 	 2.530384 	 3.953247 	 -2.561090 
H 	 -6.035833 	 -3.665769 	 0.826031 
H 	 -5.886723 	 -2.157977 	 0.879181 
H 	 1.772356 	 -3.689298 	 -5.714671 
H 	 1.761473 	 -3.988055 	 -7.222575 
H 	 3.958833 	 1.249916 	 6.446942 
H 	 4.774372 	 1.190892 	 5.023472 
H 	 6.085373 	 -7.236645 	 -0.683810 
H 	 7.114239 	 -7.147287 	 0.517367 
H 	 -2.098251 	 -1.960943 	 3.534463 
H 	 -0.615936 	 -2.185525 	 3.544108 
H 	 -4.444723 	 -0.670717 	 -2.489344 
H 	 -5.092109 	 0.234032 	 -1.326492 
H 	 -5.838195 	 -1.212725 	 4.349666 
H 	 -6.948551 	 -1.810145 	 5.268424 
H 	 -0.222378 	 1.115016 	 4.689395 
H 	 -0.865649 	 -0.257615 	 4.374368 
H 	 2.308289 	 4.085544 	 -6.284654 
H 	 3.739594 	 3.603882 	 -6.727133 
H 	 -5.553268 	 3.442227 	 -2.083955 
H 	 -4.471376 	 3.030521 	 -3.222090 
H 	 -1.767668 	 -2.437605 	 6.277944 
H 	 -1.011204 	 -3.483012 	 5.363381 
H 	 6.774271 	 -1.536476 	 -6.170466 
H 	 7.264027 	 -0.583874 	 -5.083448 
H 	 3.105394 	 2.402823 	 -5.266484 
H 	 4.254532 	 1.565904 	 -5.246175 
H 	 -4.210096 	 -3.257251 	 2.526671 
H 	 -4.094116 	 -3.434389 	 4.075165 
H 	 0.576803 	 1.806786 	 0.944900 
H 	 -0.159042 	 0.407784 	 0.908524 
H 	 4.721830 	 4.580607 	 -0.538868 
H 	 3.382324 	 5.340602 	 -0.562386 
H 	 -6.176641 	 -4.914671 	 -5.135818 
H 	 -6.185466 	 -4.930511 	 -6.645051 
H 	 3.794127 	 0.372624 	 -0.380865 
H 	 2.679856 	 1.424170 	 -0.436681 
H 	 4.491481 	 -3.030753 	 -2.978147 
H 	 4.534817 	 -4.532002 	 -2.623136 
H 	 -5.299400 	 -4.693042 	 -2.793699 
H 	 -5.684724 	 -6.137393 	 -2.632826 
H 	 -3.718793 	 -5.459066 	 7.115874 
H 	 -3.412202 	 -4.196425 	 6.261498 
H 	 0.293028 	 0.882450 	 -5.706475 
H 	 0.530296 	 0.244419 	 -4.336629 
H 	 -2.852280 	 4.792351 	 -7.300554 
H 	 -3.160830 	 4.860934 	 -5.735415 
H 	 1.097313 	 -5.783595 	 -3.579787 
H 	 2.149670 	 -5.650316 	 -2.373205 
H 	 -7.057010 	 3.649404 	 3.167553 
H 	 -6.086393 	 4.649990 	 2.429147 
H 	 2.973151 	 -1.284973 	 -7.186098 
H 	 4.106540 	 -0.876070 	 6.905841 
H 	 -0.055711 	 2.863755 	 -6.979755 
H 	 0.770979 	 1.844247 	 7.096045 
H 	 -5.874444 	 1.098985 	 -6.054971 
H 	 -5.530334 	 -0.385272 	 -6.093562 
H 	 -5.972018 	 4.308591 	 -6.937112 
H 	 -5.045863 	 3.463827 	 7.058570 
H 	 -6.491511 	 -5.442488 	 2.457254 
H 	 -6.770873 	 -6.789547 	 3.195480 
H 	 0.163506 	 -6.814557 	 6.417290 
H 	 -1.098584 	 -6.534096 	 7.230931 
H 	 4.038151 	 6.612744 	 -4.379462 
H 	 3.307368 	 5.814882 	 -3.345152 
H 	 -0.501745 	 3.163961 	 -0.254455 
H 	 0.773375 	 3.568841 	 -1.004074 
H 	 -2.714346 	 2.158740 	 2.797864 
H 	 -4.070065 	 1.985618 	 3.489866 
H 	 3.287118 	 -6.156964 	 -0.607217 
H 	 3.486448 	 -7.331319 	 -1.474607 
H 	 -1.012169 	 -0.058402 	 6.960296 
H 	 -1.190729 	 -0.872722 	 -6.576676 
H 	 5.224723 	 -1.888235 	 2.553023 
H 	 5.312163 	 -0.348486 	 2.861096 
H 	 1.124799 	 -4.040264 	 4.023041 
H 	 0.740614 	 -5.432895 	 3.736960 
H 	 -0.547588 	 -5.793448 	 -1.045786 
H 	 -1.075089 	 -6.921323 	 -1.960133 
H 	 1.178701 	 3.990223 	 4.899962 
H 	 1.689654 	 2.581450 	 4.399632 
H 	 -0.783109 	 6.413021 	 0.745990 
H 	 -1.032941 	 5.031835 	 1.255302 
H 	 7.174182 	 3.898721 	 -5.856669 
H 	 5.781635 	 3.906539 	 -5.342470 
H 	 -1.811576 	 -0.231125 	 -3.488694 
H 	 -1.762469 	 -0.999454 	 -2.186612 
H 	 1.991005 	 -1.994981 	 5.704423 
H 	 0.840876 	 -1.097520 	 5.243918 
H 	 6.665639 	 5.204769 	 1.704588 
H 	 5.226831 	 5.266615 	 2.051523 
H 	 -4.824639 	 1.528889 	 1.175218 
H 	 -5.320813 	 2.260063 	 0.015531 
H 	 -5.309169 	 -2.630089 	 7.182616 
H 	 -3.941013 	 -1.892936 	 7.227313 
H 	 -4.190975 	 -0.431092 	 5.625937 
H 	 -2.939028 	 -0.576539 	 6.395497 
H 	 0.743573 	 -5.304344 	 0.925993 
H 	 1.834546 	 -6.065629 	 1.771411 
H 	 6.807111 	 -7.114059 	 -4.526200 
H 	 6.218451 	 7.171524 	 -5.781402 
H 	 -0.024002 	 5.437292 	 -6.268622 
H 	 0.150265 	 5.172476 	 -4.785817 
H 	 5.857745 	 0.574495 	 -7.287210 
H 	 6.183651 	 1.744037 	 -6.293458 
H 	 -3.314975 	 0.104732 	 0.628082 
H 	 -2.389963 	 -0.830710 	 1.419877 
H 	 2.549415 	 6.842536 	 -6.286932 
H 	 2.836385 	 -6.579457 	 -6.612428 
H 	 -2.996463 	 -2.432408 	 -5.031283 
H 	 -3.540733 	 -0.990511 	 -5.165087 
H 	 -2.628622 	 3.076539 	 6.185076 
H 	 -3.110378 	 1.601350 	 5.969439 
H 	 7.262278 	 -0.379130 	 -1.821702 
H 	 6.099287 	 -1.059819 	 -1.089145 
H 	 3.184008 	 -1.986154 	 -0.293082 
H 	 3.596782 	 -1.242710 	 -1.662797 
H 	 3.520815 	 3.198162 	 1.554097 
H 	 4.310684 	 3.174658 	 2.868600 
H 	 -4.635880 	 6.486584 	 2.247838 
H 	 -3.670055 	 5.282993 	 2.376796 
H 	 4.007208 	 -4.437548 	 1.610330 
H 	 5.173545 	 -3.998430 	 0.696691 
H 	 5.120715 	 -0.055927 	 -3.075946 
H 	 3.699178 	 -0.327532 	 -3.575354 
H 	 4.577986 	 -2.135016 	 -5.201582 
H 	 4.055544 	 -3.468455 	 -5.032539 
H 	 -0.039409 	 7.234117 	 -4.669760 
H 	 -0.631092 	 -6.437342 	 -5.307736 
H 	 6.695388 	 6.717790 	 5.124310 
H 	 6.827241 	 6.125762 	 3.713670 
H 	 1.412906 	 5.722196 	 1.441024 
H 	 2.374906 	 5.060159 	 2.486889 
H 	 0.894158 	 6.594167 	 3.473783 
H 	 -0.145903 	 7.018459 	 4.575338 
H 	 -6.708225 	 4.007124 	 0.262069 
H 	 -5.640882 	 4.795895 	 -0.627122 
H 	 5.805440 	 1.970310 	 2.253091 
H 	 6.505075 	 2.035092 	 3.660887 
H 	 1.449116 	 -7.511612 	 -0.304693 
H 	 0.962046 	 6.708933 	 -1.586813 
H 	 -0.725303 	 -3.950536 	 1.921232 
H 	 -1.613228 	 -4.000014 	 0.647865 
H 	 -4.407837 	 6.711942 	 6.088037 
H 	 -4.225460 	 6.188485 	 4.685204 
H 	 -3.607556 	 6.593799 	 -1.052679 
H 	 -3.432589 	 5.673280 	 -2.289517 
H 	 -2.306970 	 -7.499972 	 -3.276348 
H 	 -3.460743 	 -6.448129 	 -3.244018 
H 	 -7.146530 	 7.211581 	 -1.961318 
H 	 -5.703583 	 6.861769 	 -2.280050 
H 	 3.053737 	 0.270653 	 3.630137 
H 	 2.295924 	 0.716318 	 2.369901 
H 	 7.222883 	 4.422132 	 -2.701221 
H 	 5.749352 	 4.251510 	 -2.609376 
H 	 0.576339 	 -1.487391 	 -0.241189 
H 	 0.327838 	 -2.982284 	 0.139960 
H 	 -0.431324 	 2.637591 	 2.472147 
H 	 -0.858672 	 3.320565 	 3.748391 
H 	 1.858388 	 -1.886479 	 3.589474 
H 	 2.251641 	 -2.275693 	 2.114911 
H 	 -6.839061 	 -3.050272 	 -4.377046 
H 	 -5.360389 	 -2.783106 	 -4.371961 
H 	 5.449974 	 -2.666461 	 6.125461 
H 	 5.710737 	 -1.758952 	 4.896295 
H 	 -2.401084 	 -2.051617 	 -0.162979 
H 	 -3.687126 	 -2.963482 	 -0.342976 
H 	 7.079543 	 2.160527 	 -4.053699 
H 	 -6.472028 	 1.664751 	 -3.551732 
H 	 -0.773357 	 5.013622 	 6.132564 
H 	 -2.302307 	 5.365707 	 5.752776 
H 	 -3.624179 	 1.744930 	 -5.877214 
H 	 -2.183107 	 1.741182 	 -6.275595 
H 	 -7.103055 	 0.662507 	 5.464752 
H 	 -6.834592 	 2.078902 	 6.000403 
H 	 -0.302532 	 5.291020 	 -2.671674 
O 	 6.386362 	 7.281862 	 7.498272 
O 	 4.011509 	 -6.707986 	 3.283659 
O 	 0.957369 	 5.566066 	 6.129860 
O 	 -0.945754 	 -3.564784 	 -2.494919 
O 	 1.274391 	 0.054916 	 -1.779199 
O 	 3.435345 	 -4.185905 	 4.701145 
O 	 -7.487459 	 -3.874937 	 2.997537 
O 	 -6.773209 	 -4.889224 	 5.639197 
O 	 -6.875524 	 -0.700565 	 1.507881 
O 	 -3.199501 	 -6.822229 	 0.633946 
O 	 3.631438 	 6.152323 	 5.067198 
O 	 5.908572 	 4.674669 	 5.734877 
O 	 -5.829651 	 6.963810 	 -7.158773 
O 	 -2.672797 	 4.109592 	 -3.433034 
O 	 -1.684467 	 -4.355582 	 -5.291996 
O 	 -6.032634 	 5.263936 	 -4.883909 
O 	 -2.880663 	 -6.721693 	 -6.479710 
O 	 5.217049 	 -4.470875 	 7.075023 
O 	 -2.428943 	 2.691813 	 -0.702186 
O 	 6.128635 	 2.748234 	 0.326499 
O 	 6.569155 	 -3.827156 	 -0.703326 
O 	 1.412346 	 -2.263472 	 -3.597329 
O 	 1.711092 	 3.421401 	 -2.677283 
O 	 -5.357039 	 -2.975364 	 0.693345 
O 	 1.355829 	 -4.256750 	 -6.404432 
O 	 4.654918 	 1.653237 	 5.890145 
O 	 6.972522 	 -6.872811 	 -0.383526 
O 	 -1.297837 	 -1.668516 	 3.055609 
O 	 -5.242706 	 -0.550441 	 -1.930055 
O 	 -6.124658 	 -1.301511 	 5.269975 
O 	 -0.266682 	 0.193339 	 5.011112 
O 	 2.788872 	 3.412447 	 -6.851830 
O 	 -5.400194 	 3.207106 	 -3.031385 
O 	 -1.876951 	 -3.095851 	 5.558076 
O 	 -7.462395 	 -1.482344 	 -5.452203 
O 	 3.561189 	 1.781376 	 -4.629096 
O 	 -3.767671 	 -3.807456 	 3.243444 
O 	 0.697352 	 0.846340 	 1.040983 
O 	 4.151311 	 5.117916 	 -1.099183 
O 	 -6.658792 	 -5.326698 	 -5.886477 
O 	 3.635341 	 1.342386 	 -0.577989 
O 	 4.559837 	 -3.924557 	 -3.406558 
O 	 -5.001854 	 -5.480122 	 -2.293093 
O 	 -3.946098 	 -5.028458 	 6.253920 
O 	 0.268702 	 0.031153 	 -5.244049 
O 	 -3.279070 	 5.331635 	 -6.591140 
O 	 1.422157 	 -5.247653 	 -2.851162 
O 	 -6.798538 	 4.011211 	 2.306316 
O 	 3.133480 	 -0.669498 	 6.968153 
O 	 -0.031130 	 1.906836 	 -7.271184 
O 	 -5.125410 	 0.473709 	 -6.312889 
O 	 -5.968185 	 3.744806 	 7.158119 
O 	 -6.182698 	 -6.382398 	 2.528175 
O 	 -0.800395 	 -7.021636 	 6.457483 
O 	 3.196630 	 6.132254 	 -4.263542 
O 	 0.450992 	 3.387926 	 -0.081039 
O 	 -3.676313 	 2.143503 	 2.607147 
O 	 3.706505 	 -6.382426 	 -1.455386 
O 	 -1.490607 	 -0.775358 	 7.412359 
O 	 5.768110 	 -1.206495 	 3.006143 
O 	 0.314574 	 -4.577638 	 3.933236 
O 	 -0.873649 	 -6.709051 	 -1.021485 
O 	 1.117286 	 3.043871 	 5.046909 
O 	 -1.532498 	 5.832702 	 0.968280 
O 	 6.264110 	 3.729391 	 -6.170685 
O 	 -1.618923 	 -0.106686 	 -2.529755 
O 	 1.182590 	 -2.032727 	 5.123916 
O 	 5.929836 	 5.888926 	 1.749930 
O 	 -5.391454 	 1.371934 	 0.397047 
O 	 -4.664835 	 -2.231185 	 -7.121756 
O 	 -3.277516 	 -0.698880 	 5.487971 
O 	 1.654368 	 -5.646053 	 0.862262 
O 	 6.098104 	 7.204052 	 -4.790581 
O 	 0.357886 	 4.772431 	 -5.669367 
O 	 6.078566 	 0.760196 	 -6.352064 
O 	 -2.405726 	 -0.284003 	 0.606478 
O 	 2.800382 	 -7.454084 	 -7.007925 
O 	 -3.167226 	 -1.608343 	 -4.489259 
O 	 -3.431376 	 2.491627 	 6.174923 
O 	 6.488647 	 -0.172899 	 -1.306282 
O 	 3.921548 	 -1.715488 	 -0.866128 
O 	 3.871196 	 3.778586 	 2.235263 
O 	 -4.453432 	 5.678721 	 2.762556 
O 	 4.713430 	 -3.768809 	 1.530507 
O 	 4.579966 	 -0.755165 	 -3.479218 
O 	 3.953465 	 -2.723741 	 -5.715358 
O 	 0.260200 	 -6.873374 	 -5.236684 
O 	 7.092962 	 6.913173 	 4.259475 
O 	 1.466578 	 5.456894 	 2.374420 
O 	 0.458600 	 -7.522584 	 3.904618 
O 	 -6.364872 	 4.136568 	 -0.654973 
O 	 5.744928 	 1.666379 	 3.170407 
O 	 1.650270 	 6.664603 	 -0.881862 
O 	 -0.911862 	 -4.492190 	 1.116677 
O 	 -3.695945 	 6.587558 	 5.409349 
O 	 -4.121335 	 6.180514 	 -1.789129 
O 	 -2.608960 	 -6.647439 	 -3.635098 
O 	 -6.552471 	 7.017321 	 -2.713304 
O 	 2.695301 	 1.055042 	 3.193004 
O 	 6.544375 	 3.767474 	 -2.943820 
O 	 1.053030 	 -2.310208 	 -0.042310 
O 	 -1.178836 	 3.142687 	 2.812350 
O 	 2.616934 	 -2.011156 	 2.975321 
O 	 -5.996470 	 -3.475748 	 -4.095270 
O 	 5.849620 	 -1.795245 	 5.898443 
O 	 -2.689418 	 -2.947969 	 -0.463934 
O 	 -7.188755 	 1.408305 	 -4.149021 
O 	 -1.616257 	 4.635626 	 5.771908 
O 	 -2.808906 	 2.229301 	 -5.666160 
O 	 -7.137598 	 1.592292 	 5.154665 
O 	 -0.920481 	 5.756400 	 -3.279217 
K 	 -2.656890 	 -6.009992 	 3.557270 
