333
conformation = 9
H 	 1.141277 	 -0.150237 	 1.153157 
H 	 0.567467 	 1.339729 	 0.928785 
H 	 -2.501231 	 -0.266123 	 -1.646729 
H 	 -2.201472 	 -0.751010 	 -3.108934 
H 	 -5.142512 	 -2.412964 	 0.629910 
H 	 -3.839522 	 -1.860904 	 -0.086594 
H 	 -7.011577 	 4.312001 	 6.402346 
H 	 6.848840 	 4.111731 	 7.563146 
H 	 -7.423377 	 -7.224508 	 -7.092911 
H 	 -6.662078 	 6.395327 	 7.607725 
H 	 -2.888414 	 2.321336 	 -2.101904 
H 	 -3.732439 	 2.999451 	 -1.016690 
H 	 -0.112634 	 3.524958 	 -2.440591 
H 	 0.698277 	 2.313023 	 -2.055733 
H 	 3.078803 	 2.512406 	 0.502842 
H 	 1.889729 	 3.312395 	 -0.039599 
H 	 2.971604 	 7.296385 	 -4.170262 
H 	 1.479968 	 6.808151 	 -4.362591 
H 	 4.645259 	 1.225643 	 -5.401327 
H 	 6.202952 	 1.017754 	 -5.243996 
H 	 -1.166198 	 -1.422824 	 -0.423097 
H 	 -1.889649 	 -0.445386 	 0.553758 
H 	 0.721587 	 -2.429593 	 -1.416969 
H 	 -0.039523 	 -3.728807 	 -1.025889 
H 	 3.159577 	 -0.926196 	 2.622371 
H 	 2.747900 	 -1.882810 	 1.601944 
H 	 6.703853 	 -2.897325 	 5.598733 
H 	 5.401540 	 -3.733235 	 5.173773 
H 	 -6.237448 	 3.057536 	 4.609279 
H 	 -6.452026 	 3.114015 	 3.117526 
H 	 2.767630 	 -1.965784 	 4.864249 
H 	 2.931023 	 -3.439846 	 5.008292 
H 	 5.701139 	 0.525461 	 2.624023 
H 	 6.486445 	 1.887020 	 3.129543 
H 	 -1.471282 	 2.364413 	 1.506201 
H 	 -1.535225 	 2.882888 	 0.093933 
H 	 6.774662 	 -4.341231 	 7.773223 
H 	 6.142955 	 -5.558866 	 6.843909 
H 	 -0.490535 	 -5.305927 	 -6.967504 
H 	 -0.503378 	 -6.435971 	 -5.942872 
H 	 1.848602 	 3.736199 	 6.766468 
H 	 0.800563 	 2.783069 	 7.405448 
H 	 -4.431757 	 5.581287 	 6.332655 
H 	 -4.753200 	 4.021541 	 6.533638 
H 	 -3.537853 	 -4.084087 	 6.094872 
H 	 -3.664403 	 -3.625814 	 7.543819 
H 	 2.313828 	 3.460563 	 -4.623153 
H 	 2.638722 	 4.942478 	 -4.255815 
H 	 -4.502029 	 2.779739 	 2.115101 
H 	 -5.363228 	 3.805583 	 1.300848 
H 	 -2.013112 	 -4.273381 	 0.227609 
H 	 -1.577132 	 -5.209158 	 -0.957148 
H 	 0.388820 	 1.772546 	 -4.375537 
H 	 1.692041 	 0.972464 	 -3.971601 
H 	 6.788938 	 4.933496 	 -1.352326 
H 	 -6.720290 	 5.043878 	 -0.716158 
H 	 2.437631 	 5.991443 	 6.824941 
H 	 3.102338 	 6.910973 	 -7.042533 
H 	 1.186728 	 5.284071 	 -1.339176 
H 	 1.011790 	 5.871834 	 0.020328 
H 	 -6.614482 	 -6.337093 	 -0.257701 
H 	 -7.394959 	 7.415217 	 -0.908913 
H 	 -3.329819 	 -3.030036 	 2.755390 
H 	 -1.882901 	 -3.507082 	 2.607673 
H 	 2.522088 	 -3.644794 	 7.107587 
H 	 3.874952 	 -4.431500 	 6.898290 
H 	 6.306445 	 5.089842 	 1.320089 
H 	 6.614087 	 3.630546 	 1.825739 
H 	 0.309220 	 4.933352 	 3.412170 
H 	 0.196289 	 6.042493 	 4.468764 
H 	 -2.825865 	 -5.167225 	 3.909165 
H 	 -1.419209 	 -5.850413 	 3.965598 
H 	 3.901744 	 4.525852 	 -2.750293 
H 	 4.306706 	 5.278078 	 -1.364573 
H 	 -5.725480 	 -6.736420 	 -3.975739 
H 	 -7.071880 	 7.593566 	 -3.672023 
H 	 -2.281399 	 -1.508633 	 -5.812293 
H 	 -3.631784 	 -1.199355 	 -6.571503 
H 	 2.582920 	 2.762483 	 4.627489 
H 	 2.762022 	 1.965994 	 3.312651 
H 	 -2.954609 	 7.070323 	 -5.607929 
H 	 -3.313931 	 -6.819772 	 -6.602937 
H 	 -1.580989 	 2.753797 	 4.525496 
H 	 -1.438960 	 2.076246 	 5.983840 
H 	 2.917877 	 2.319745 	 7.689585 
H 	 3.089729 	 0.816784 	 -6.926651 
H 	 5.343988 	 2.712845 	 0.348708 
H 	 4.974601 	 3.035312 	 -0.992956 
H 	 -5.104877 	 -7.177688 	 4.469017 
H 	 -6.188320 	 6.710903 	 4.832834 
H 	 6.819567 	 -1.539754 	 2.867879 
H 	 5.422984 	 -1.617260 	 3.571270 
H 	 -5.077550 	 1.481563 	 6.237794 
H 	 -3.643337 	 2.051554 	 6.176028 
H 	 1.895014 	 -3.631455 	 -3.788268 
H 	 3.027880 	 -2.910481 	 -2.889642 
H 	 -3.143366 	 -6.988187 	 1.413232 
H 	 -2.519212 	 6.519845 	 1.207281 
H 	 -6.085260 	 -4.038684 	 2.721925 
H 	 -6.006734 	 -5.207593 	 1.638107 
H 	 2.450871 	 -6.506492 	 4.560257 
H 	 2.894972 	 7.626821 	 3.254798 
H 	 3.148361 	 -4.326820 	 0.850655 
H 	 2.460126 	 -4.817210 	 2.113705 
H 	 3.431094 	 1.575383 	 -2.571253 
H 	 2.489782 	 0.509945 	 -1.878983 
H 	 -6.761170 	 -0.790138 	 0.796078 
H 	 -7.133766 	 0.559113 	 1.391008 
H 	 -2.751768 	 -1.185200 	 5.408723 
H 	 -4.097204 	 -1.866232 	 5.692802 
H 	 -6.722759 	 -4.822720 	 -5.397099 
H 	 -5.215962 	 -4.850612 	 -5.912398 
H 	 5.442033 	 -5.236761 	 -2.303400 
H 	 3.920062 	 -5.593757 	 -1.945966 
H 	 -2.861796 	 1.133945 	 7.761178 
H 	 -1.618631 	 0.402760 	 -6.748536 
H 	 6.890576 	 7.320110 	 1.530311 
H 	 -7.082888 	 7.064735 	 2.764070 
H 	 -2.119601 	 5.763612 	 -2.050462 
H 	 -0.989859 	 6.825686 	 -2.186683 
H 	 -5.753137 	 1.816628 	 -0.361333 
H 	 -5.937768 	 1.434425 	 -1.801427 
H 	 -6.333850 	 2.121106 	 -6.687134 
H 	 7.208734 	 1.545071 	 7.731291 
H 	 -4.650032 	 -4.520092 	 -0.341596 
H 	 -4.312879 	 -5.889995 	 -1.000112 
H 	 7.476330 	 -1.999075 	 -4.836233 
H 	 7.465713 	 -2.799502 	 -3.593508 
H 	 0.903755 	 -2.652225 	 3.013302 
H 	 0.008753 	 -1.582661 	 2.553775 
H 	 5.679909 	 6.516681 	 6.511194 
H 	 5.555525 	 6.255736 	 -6.823935 
H 	 -4.723924 	 6.021359 	 0.950271 
H 	 -6.276140 	 5.791572 	 1.418491 
H 	 0.028773 	 -1.269931 	 -4.662080 
H 	 -0.855573 	 -2.510528 	 -4.316648 
H 	 4.533101 	 -5.439361 	 -4.421763 
H 	 5.032761 	 -5.591359 	 -5.867393 
H 	 2.691067 	 4.583792 	 1.638579 
H 	 3.689878 	 4.997742 	 2.725779 
H 	 4.318645 	 7.345384 	 -0.739803 
H 	 3.940679 	 6.418312 	 0.395253 
H 	 -5.762541 	 1.483206 	 -4.619354 
H 	 -4.481429 	 1.065010 	 -3.925731 
H 	 0.077122 	 -0.324824 	 5.710873 
H 	 0.434830 	 0.053377 	 4.289738 
H 	 -5.758626 	 -1.416058 	 3.302773 
H 	 -6.368198 	 -2.436743 	 4.357871 
H 	 -0.681806 	 -6.865396 	 1.896432 
H 	 -0.077993 	 -5.442839 	 1.759794 
H 	 5.406527 	 7.464107 	 -4.374197 
H 	 5.528707 	 6.477893 	 -3.167166 
H 	 -3.162181 	 -0.069945 	 2.664869 
H 	 -4.200035 	 0.283220 	 1.509042 
H 	 6.091885 	 4.579253 	 4.389366 
H 	 6.041863 	 5.869112 	 3.457285 
H 	 5.863056 	 -4.109193 	 0.217093 
H 	 5.448833 	 -5.586870 	 0.137154 
H 	 0.349062 	 6.266994 	 -6.304047 
H 	 -0.901858 	 5.951945 	 -5.396106 
H 	 -3.734350 	 5.184451 	 -5.661802 
H 	 -2.831853 	 4.694751 	 -6.867295 
H 	 -1.347139 	 -4.650826 	 -4.734294 
H 	 -1.003359 	 -4.481210 	 -3.292294 
H 	 4.221552 	 -1.144556 	 -3.164769 
H 	 5.344984 	 -2.195389 	 -3.513922 
H 	 -1.846558 	 2.035821 	 -3.485440 
H 	 -2.068831 	 3.007268 	 -4.641608 
H 	 -2.148148 	 6.000012 	 6.111290 
H 	 -2.755708 	 7.286643 	 5.527778 
H 	 -3.959987 	 4.783542 	 3.335386 
H 	 -2.486839 	 5.018853 	 2.789291 
H 	 -6.173366 	 -0.412938 	 5.262895 
H 	 -7.097122 	 0.762811 	 5.024808 
H 	 0.271180 	 0.284757 	 -0.744785 
H 	 -0.742134 	 0.193061 	 -1.923509 
H 	 -4.767730 	 -3.412022 	 -3.934656 
H 	 -3.401925 	 -3.216213 	 -3.254445 
H 	 -6.006082 	 -1.149747 	 -2.951168 
H 	 -5.286531 	 -1.056815 	 -1.572281 
H 	 1.385335 	 -3.692311 	 -6.094592 
H 	 2.632963 	 -2.924747 	 -5.569556 
H 	 0.054429 	 -6.683713 	 -3.760443 
H 	 0.940300 	 -6.415509 	 -2.540065 
H 	 -6.137144 	 -0.822744 	 -6.252430 
H 	 -6.056692 	 -1.730082 	 7.400288 
H 	 7.286987 	 3.601543 	 -2.992644 
H 	 6.868070 	 3.190948 	 -4.419992 
H 	 4.236574 	 -1.093166 	 0.420915 
H 	 4.453109 	 -1.962095 	 -0.838089 
H 	 5.133018 	 -1.312477 	 -5.749643 
H 	 5.457173 	 -2.025208 	 -7.060025 
H 	 5.675990 	 -0.326616 	 6.158881 
H 	 5.428946 	 1.184410 	 6.385494 
H 	 0.725380 	 0.437636 	 -6.386175 
H 	 0.569840 	 -0.956775 	 -6.824910 
H 	 -4.018607 	 -7.120851 	 -2.641143 
H 	 -3.311681 	 -6.237253 	 -3.666369 
H 	 -0.644285 	 -3.377718 	 5.949683 
H 	 0.691992 	 -3.628335 	 5.302906 
H 	 -6.245497 	 5.662697 	 -5.265971 
H 	 -6.154876 	 4.115168 	 -4.822681 
H 	 -6.947479 	 -5.150066 	 -2.702399 
H 	 -7.395384 	 -4.021798 	 -1.746809 
H 	 -4.921805 	 5.268775 	 -1.620564 
H 	 -4.310012 	 4.774396 	 -2.962229 
H 	 2.154273 	 4.908539 	 4.897998 
H 	 3.772196 	 4.668813 	 4.837396 
H 	 -0.882462 	 4.727886 	 1.151094 
H 	 -1.134780 	 5.767566 	 0.013999 
H 	 5.489769 	 5.263733 	 -5.026254 
H 	 4.378452 	 4.353773 	 -5.459439 
H 	 0.619117 	 -6.191604 	 5.333357 
H 	 1.262028 	 -7.194606 	 6.394632 
H 	 7.106989 	 -3.003337 	 1.270225 
H 	 6.326975 	 -2.026370 	 0.326366 
H 	 5.205446 	 -6.089920 	 4.068351 
H 	 6.649276 	 -5.643534 	 3.939038 
H 	 2.090449 	 7.467983 	 -0.953297 
H 	 2.198909 	 -5.949908 	 -0.452871 
H 	 -6.176532 	 -3.497601 	 6.094667 
O 	 0.348793 	 0.384975 	 1.106990 
O 	 -2.431446 	 0.032343 	 -2.583329 
O 	 -4.713102 	 -2.312600 	 -0.233655 
O 	 6.922604 	 4.226261 	 6.595007 
O 	 -6.628818 	 7.200548 	 -6.750145 
O 	 -2.844062 	 2.666379 	 -1.191982 
O 	 0.800327 	 3.293255 	 -2.162314 
O 	 2.229197 	 2.880685 	 0.777832 
O 	 2.316886 	 6.635712 	 -3.892650 
O 	 5.337454 	 0.681767 	 -4.906988 
O 	 -2.027618 	 -1.053623 	 -0.204012 
O 	 -0.099882 	 -2.754715 	 -1.037471 
O 	 2.808139 	 -0.914712 	 1.724582 
O 	 5.637900 	 -2.891246 	 5.612749 
O 	 -6.946519 	 3.296760 	 3.990900 
O 	 2.866332 	 -2.769051 	 4.283892 
O 	 6.182213 	 1.382242 	 2.364108 
O 	 -0.948174 	 2.910241 	 0.887916 
O 	 6.600890 	 -5.293470 	 7.672401 
O 	 -0.095760 	 -5.558738 	 -6.096920 
O 	 1.581918 	 3.313905 	 7.615067 
O 	 -5.111286 	 4.879606 	 6.226009 
O 	 -3.928296 	 -4.357255 	 6.930308 
O 	 3.031372 	 4.052553 	 -4.331898 
O 	 -5.315271 	 2.876193 	 1.590683 
O 	 -1.423482 	 -5.034175 	 0.003774 
O 	 1.083800 	 1.148686 	 -4.724102 
O 	 -7.221843 	 5.332946 	 -1.525371 
O 	 2.213343 	 6.596805 	 7.576518 
O 	 1.736712 	 5.648924 	 -0.600090 
O 	 7.388656 	 -6.754037 	 -0.280163 
O 	 -2.787481 	 -3.754430 	 2.318723 
O 	 2.937336 	 -4.350016 	 6.582484 
O 	 6.022862 	 4.159317 	 1.274122 
O 	 0.214656 	 5.065211 	 4.369707 
O 	 -2.257039 	 -5.739050 	 4.447567 
O 	 4.636547 	 4.734183 	 -2.102939 
O 	 -6.259026 	 -6.999626 	 -3.213959 
O 	 -2.720113 	 -1.551320 	 -6.704115 
O 	 2.392514 	 1.895722 	 4.213073 
O 	 -3.136923 	 -6.868132 	 -5.633840 
O 	 -1.838540 	 2.830990 	 5.462949 
O 	 3.600099 	 1.635540 	 -7.089117 
O 	 4.918417 	 2.237861 	 -0.417871 
O 	 -5.742059 	 7.126151 	 4.037326 
O 	 5.846656 	 -1.297082 	 2.748421 
O 	 -4.403743 	 1.948192 	 6.782293 
O 	 2.116622 	 -3.322238 	 -2.885302 
O 	 -3.308275 	 6.945834 	 1.619444 
O 	 -6.606888 	 -4.676957 	 2.172177 
O 	 3.044253 	 -6.429722 	 3.776916 
O 	 2.315957 	 -4.228298 	 1.360266 
O 	 3.089785 	 0.661698 	 -2.656463 
O 	 -6.455545 	 0.140532 	 0.826143 
O 	 -3.605253 	 -1.405607 	 4.982087 
O 	 -5.793149 	 -4.656648 	 -5.168628 
O 	 4.651488 	 -5.787115 	 -2.574196 
O 	 -1.973624 	 1.319821 	 -6.785166 
O 	 7.061239 	 6.669689 	 2.261309 
O 	 -1.180068 	 5.923361 	 -1.845435 
O 	 -6.055426 	 2.211318 	 -1.204804 
O 	 -7.126197 	 1.658704 	 -6.368363 
O 	 -4.837053 	 -5.500282 	 -0.283539 
O 	 7.307958 	 -1.853856 	 -3.891535 
O 	 0.017452 	 -2.540459 	 2.610659 
O 	 5.318993 	 6.886945 	 7.345525 
O 	 -5.579295 	 5.558500 	 0.772009 
O 	 -0.884193 	 -1.536618 	 -4.496133 
O 	 4.404194 	 -5.969412 	 -5.215823 
O 	 3.159300 	 5.372490 	 2.005384 
O 	 4.684527 	 6.629486 	 -0.219097 
O 	 -4.864734 	 1.209066 	 -4.813931 
O 	 -0.352492 	 -0.186450 	 4.840676 
O 	 -6.306723 	 -2.219009 	 3.377910 
O 	 -0.190081 	 -6.173251 	 2.394548 
O 	 5.890129 	 6.659127 	 -4.042825 
O 	 -3.386833 	 0.571485 	 1.971023 
O 	 5.610758 	 5.423824 	 4.204177 
O 	 5.043551 	 -4.692182 	 0.255105 
O 	 -0.075286 	 6.542561 	 -5.442200 
O 	 -2.809702 	 5.144833 	 -5.982793 
O 	 -1.657770 	 -4.167695 	 -3.938066 
O 	 4.466573 	 -2.102635 	 -3.084665 
O 	 -1.471254 	 2.848822 	 -3.906140 
O 	 -2.862366 	 6.627298 	 6.277342 
O 	 -3.128629 	 4.352050 	 3.052889 
O 	 -6.160105 	 0.516481 	 5.001289 
O 	 0.233068 	 0.282399 	 -1.713293 
O 	 -4.279267 	 -2.830807 	 -3.328583 
O 	 -5.880730 	 -0.559596 	 -2.185129 
O 	 1.686847 	 -2.801345 	 -5.793492 
O 	 0.024037 	 -6.396305 	 -2.845205 
O 	 -5.645866 	 -1.587294 	 -6.594920 
O 	 -7.408201 	 2.947373 	 -3.682104 
O 	 4.885175 	 -1.281692 	 -0.294985 
O 	 5.192391 	 -2.201533 	 -6.129590 
O 	 6.063393 	 0.558372 	 6.025930 
O 	 0.527933 	 -0.045886 	 7.708434 
O 	 -3.375914 	 -6.369113 	 -2.686161 
O 	 0.257904 	 -3.643128 	 6.192389 
O 	 -5.628004 	 4.890372 	 -5.179232 
O 	 7.291476 	 -4.434793 	 -2.623250 
O 	 -4.060485 	 5.255612 	 -2.109415 
O 	 2.952249 	 4.557467 	 5.382555 
O 	 -0.895209 	 5.697733 	 0.952957 
O 	 5.348552 	 4.533069 	 -5.687362 
O 	 0.774033 	 -7.138827 	 5.550823 
O 	 7.036011 	 -2.701235 	 0.352958 
O 	 6.029992 	 -5.953180 	 4.629799 
O 	 2.483177 	 -6.561543 	 -1.181345 
O 	 -6.526166 	 -2.629426 	 5.913728 
K 	 6.400507 	 0.627103 	 -2.000955 
