333
conformation = 10
H 	 0.550048 	 0.921409 	 1.123487 
H 	 -0.086722 	 2.325826 	 0.897515 
H 	 -3.236898 	 0.694619 	 -1.660164 
H 	 -2.743136 	 0.336731 	 -3.167267 
H 	 -5.955023 	 -1.280865 	 0.573951 
H 	 -4.537459 	 -0.835534 	 0.010928 
H 	 7.217862 	 5.387684 	 6.503208 
H 	 6.134460 	 5.297900 	 7.551900 
H 	 6.818771 	 -6.193883 	 -6.976249 
H 	 -7.377620 	 -7.537460 	 -7.264451 
H 	 -3.641357 	 3.296566 	 -2.071778 
H 	 -4.402160 	 4.097985 	 -1.025193 
H 	 -0.670738 	 4.529975 	 -2.626361 
H 	 0.122951 	 3.288211 	 -2.119700 
H 	 2.459680 	 3.597258 	 0.402829 
H 	 1.262291 	 4.366753 	 -0.060591 
H 	 2.297741 	 -6.588815 	 -4.181865 
H 	 0.845880 	 -7.036994 	 -4.479734 
H 	 3.955007 	 2.076416 	 -5.475511 
H 	 5.502942 	 2.055129 	 -5.214759 
H 	 -1.785276 	 -0.437278 	 -0.402108 
H 	 -2.555185 	 0.630887 	 0.458419 
H 	 0.136148 	 -1.609716 	 -1.423645 
H 	 -0.817326 	 -2.688326 	 -0.825404 
H 	 2.442369 	 0.317646 	 2.625689 
H 	 2.132356 	 -0.871047 	 1.664114 
H 	 5.980065 	 -1.836616 	 5.467195 
H 	 4.663158 	 -2.681224 	 5.087726 
H 	 -6.904467 	 4.117164 	 4.608308 
H 	 -7.139356 	 4.171755 	 3.152769 
H 	 2.074103 	 -0.904639 	 4.798882 
H 	 2.224820 	 -2.373917 	 5.050507 
H 	 5.033246 	 1.599289 	 2.696767 
H 	 5.733178 	 2.872525 	 3.190257 
H 	 -2.177674 	 3.524829 	 1.591354 
H 	 -2.192908 	 3.914184 	 0.082296 
H 	 6.020569 	 -3.296508 	 -7.198440 
H 	 5.633027 	 -4.444938 	 6.751358 
H 	 -1.087126 	 -4.239084 	 -6.965373 
H 	 -1.284698 	 -5.389900 	 -5.969282 
H 	 1.180529 	 4.739065 	 6.756841 
H 	 0.091510 	 3.806106 	 7.366558 
H 	 -5.094627 	 6.601936 	 6.242569 
H 	 -5.280174 	 5.041597 	 6.328314 
H 	 -4.119401 	 -2.994809 	 6.093868 
H 	 -4.406268 	 -2.631928 	 7.559466 
H 	 1.590606 	 4.557969 	 -4.589674 
H 	 1.893089 	 6.014854 	 -4.309429 
H 	 -5.160815 	 3.853168 	 2.161770 
H 	 -5.972123 	 4.835963 	 1.255272 
H 	 -2.716588 	 -3.294310 	 0.276572 
H 	 -2.302398 	 -4.249561 	 -0.905793 
H 	 -0.260568 	 2.846809 	 -4.467625 
H 	 0.963857 	 1.903945 	 -4.029458 
H 	 6.154924 	 5.949105 	 -1.476096 
H 	 7.521146 	 6.033737 	 -0.810499 
H 	 1.704295 	 7.014258 	 6.848512 
H 	 2.468710 	 -6.964900 	 -7.155231 
H 	 0.609352 	 6.299013 	 -1.367781 
H 	 0.356211 	 6.855134 	 0.085388 
H 	 -7.262312 	 -5.367808 	 -0.312058 
H 	 6.855608 	 -6.448885 	 -0.976625 
H 	 -4.024744 	 -2.101771 	 2.787373 
H 	 -2.540725 	 -2.350056 	 2.497661 
H 	 1.844600 	 -2.602549 	 7.020853 
H 	 3.188828 	 -3.299363 	 6.871291 
H 	 5.799866 	 6.077296 	 1.157169 
H 	 5.944574 	 4.692359 	 1.904521 
H 	 -0.438759 	 6.027853 	 3.417652 
H 	 -0.461633 	 7.080528 	 4.566103 
H 	 -3.463785 	 -4.240243 	 3.710896 
H 	 -2.185172 	 -4.971810 	 3.890446 
H 	 3.215023 	 5.621605 	 -2.662871 
H 	 3.806304 	 6.333182 	 -1.301908 
H 	 -6.422767 	 -5.554970 	 -4.008089 
H 	 7.123324 	 -6.277107 	 -3.704318 
H 	 -2.938887 	 -0.446141 	 -5.815738 
H 	 -4.287094 	 -0.208936 	 -6.542156 
H 	 2.025850 	 3.773371 	 4.606159 
H 	 2.150492 	 2.993297 	 3.312163 
H 	 -3.539552 	 -6.747119 	 -5.552515 
H 	 -4.073332 	 -5.757363 	 -6.609516 
H 	 -2.193127 	 3.799120 	 4.569429 
H 	 -2.169500 	 3.080989 	 5.887458 
H 	 2.117849 	 3.341658 	 -7.233303 
H 	 2.435388 	 1.898511 	 -6.922205 
H 	 4.648821 	 3.763509 	 0.364148 
H 	 4.241680 	 3.933802 	 -1.137953 
H 	 -5.837229 	 -6.104181 	 4.462952 
H 	 -6.877395 	 -7.151848 	 4.800308 
H 	 6.115108 	 -0.424206 	 2.820995 
H 	 4.869114 	 -0.709748 	 3.577689 
H 	 -5.782045 	 2.433499 	 6.309173 
H 	 -4.322629 	 3.063235 	 6.106762 
H 	 1.320045 	 -2.569198 	 -3.810293 
H 	 2.386451 	 -2.029910 	 -2.800715 
H 	 -3.905926 	 -5.998098 	 1.402571 
H 	 -3.153067 	 -7.349546 	 1.171583 
H 	 -6.750578 	 -2.960750 	 2.586153 
H 	 -6.647469 	 -4.192440 	 1.644005 
H 	 1.718328 	 -5.632071 	 4.458087 
H 	 2.126507 	 -6.152947 	 3.198717 
H 	 2.509344 	 -3.295218 	 0.900096 
H 	 1.810603 	 -3.861074 	 2.096981 
H 	 2.721356 	 2.610337 	 -2.645831 
H 	 1.835026 	 1.580701 	 -1.945083 
H 	 7.402570 	 0.247862 	 0.730862 
H 	 7.149258 	 1.601290 	 1.476592 
H 	 -3.440703 	 -0.101913 	 5.314147 
H 	 -4.779580 	 -0.848511 	 5.693747 
H 	 7.498306 	 -3.660918 	 -5.493834 
H 	 -5.960735 	 -3.991291 	 -5.927873 
H 	 4.732275 	 -4.234250 	 -2.200241 
H 	 3.264237 	 -4.445568 	 -2.041065 
H 	 -3.606957 	 2.211704 	 -6.991090 
H 	 -2.255092 	 1.444075 	 -6.815408 
H 	 6.300220 	 -6.671266 	 1.452459 
H 	 7.126810 	 -6.938114 	 2.822269 
H 	 -2.824466 	 6.744287 	 -1.994296 
H 	 -1.698849 	 -7.028525 	 -2.187710 
H 	 -6.418752 	 2.858386 	 -0.410616 
H 	 -6.520218 	 2.531242 	 -1.821957 
H 	 -7.042256 	 3.057601 	 -6.764703 
H 	 6.531937 	 2.465922 	 -7.172968 
H 	 -5.396456 	 -3.506017 	 -0.245822 
H 	 -4.894721 	 -4.856048 	 -0.946183 
H 	 6.645246 	 -1.020383 	 -4.899242 
H 	 6.748062 	 -1.739990 	 -3.557512 
H 	 0.160431 	 -1.695593 	 3.113169 
H 	 -0.731694 	 -0.548018 	 2.497479 
H 	 4.982209 	 -7.352470 	 6.470944 
H 	 4.924034 	 7.261871 	 -6.957884 
H 	 -5.428150 	 7.084619 	 1.036151 
H 	 -6.947129 	 6.858371 	 1.329493 
H 	 -0.659900 	 -0.212041 	 -4.655952 
H 	 -1.569242 	 -1.448256 	 -4.278618 
H 	 3.799086 	 -4.495543 	 -4.349016 
H 	 4.265922 	 -4.473266 	 -5.853911 
H 	 2.103366 	 5.542944 	 1.566782 
H 	 3.089936 	 6.082824 	 2.680884 
H 	 3.715082 	 -6.481631 	 -0.876120 
H 	 3.210430 	 -7.309031 	 0.330763 
H 	 -6.407638 	 2.552938 	 -4.478479 
H 	 -5.114276 	 2.000851 	 -3.954723 
H 	 -0.699968 	 0.599807 	 5.726864 
H 	 -0.222636 	 1.175581 	 4.391685 
H 	 -6.396873 	 -0.397788 	 3.323377 
H 	 -7.070533 	 -1.432035 	 4.402537 
H 	 -1.399763 	 -5.789339 	 1.856582 
H 	 -0.742972 	 -4.413157 	 1.736639 
H 	 4.702536 	 -6.441729 	 -4.378368 
H 	 4.843349 	 -7.422026 	 -3.176184 
H 	 -3.850311 	 0.938304 	 2.643157 
H 	 -4.882802 	 1.327955 	 1.496689 
H 	 5.558630 	 5.724773 	 4.354578 
H 	 5.365607 	 6.932047 	 3.478392 
H 	 5.119081 	 -3.050064 	 0.291167 
H 	 4.717912 	 -4.584098 	 0.193527 
H 	 -0.231810 	 -7.508578 	 -6.340999 
H 	 -1.463643 	 6.984935 	 -5.589066 
H 	 -4.395972 	 6.110503 	 -5.600651 
H 	 -3.512938 	 5.892587 	 -6.900935 
H 	 -2.013148 	 -3.446457 	 -4.806841 
H 	 -1.603946 	 -3.394662 	 -3.359250 
H 	 3.515389 	 -0.179890 	 -3.162243 
H 	 4.674078 	 -1.213242 	 -3.457003 
H 	 -2.370302 	 3.018797 	 -3.577615 
H 	 -2.811547 	 4.020149 	 -4.651828 
H 	 -2.736653 	 7.049511 	 6.066587 
H 	 -3.445054 	 -6.629774 	 5.498555 
H 	 -4.610942 	 5.847307 	 3.219016 
H 	 -3.155026 	 6.116460 	 2.926962 
H 	 -6.748263 	 0.615477 	 5.326438 
H 	 7.117608 	 1.760953 	 5.070253 
H 	 -0.550661 	 1.239629 	 -0.718134 
H 	 -1.326539 	 1.197836 	 -2.065825 
H 	 -5.512186 	 -2.281837 	 -3.985808 
H 	 -4.132492 	 -2.243210 	 -3.247648 
H 	 -6.606408 	 -0.085868 	 -2.935119 
H 	 -5.957259 	 -0.052993 	 -1.610371 
H 	 0.727065 	 -2.634905 	 -6.096534 
H 	 1.997612 	 -1.821238 	 -5.727070 
H 	 -0.633033 	 -5.680212 	 -3.767816 
H 	 0.349378 	 -5.366170 	 -2.635968 
H 	 -6.719395 	 0.307306 	 -6.203439 
H 	 -6.698629 	 -0.674986 	 7.395570 
H 	 6.618220 	 4.634151 	 -2.981886 
H 	 6.197588 	 4.199263 	 -4.381754 
H 	 3.565428 	 -0.094767 	 0.396323 
H 	 3.843213 	 -1.025774 	 -0.788283 
H 	 4.431575 	 -0.203674 	 -5.797354 
H 	 4.756134 	 -1.027999 	 -7.065901 
H 	 4.989391 	 0.731120 	 6.156787 
H 	 4.742395 	 2.251995 	 6.340579 
H 	 0.072927 	 1.501968 	 -6.343935 
H 	 -0.244465 	 0.052895 	 -6.902558 
H 	 -4.635395 	 -6.128167 	 -2.627024 
H 	 -3.974497 	 -5.175907 	 -3.640056 
H 	 -1.376965 	 -2.378754 	 6.033307 
H 	 -0.096336 	 -2.570235 	 5.301970 
H 	 -6.852407 	 6.746223 	 -5.191400 
H 	 -6.842135 	 5.267829 	 -4.773993 
H 	 7.330993 	 -4.102242 	 -2.710744 
H 	 6.786355 	 -3.081467 	 -1.740619 
H 	 -5.541130 	 6.166818 	 -1.590358 
H 	 -4.918324 	 5.897328 	 -2.995723 
H 	 1.517167 	 5.926624 	 4.936199 
H 	 3.038946 	 5.726097 	 4.818800 
H 	 -1.520688 	 5.728040 	 1.077713 
H 	 -1.745518 	 6.717406 	 -0.082658 
H 	 4.841911 	 6.310345 	 -5.032242 
H 	 3.725221 	 5.343011 	 -5.579392 
H 	 -0.094538 	 -5.206031 	 5.350611 
H 	 0.553759 	 -6.124824 	 6.481799 
H 	 6.515841 	 -2.022457 	 1.249538 
H 	 5.613578 	 -1.009668 	 0.407574 
H 	 4.558972 	 -4.962841 	 4.061473 
H 	 6.006958 	 -4.530300 	 3.972220 
H 	 1.428672 	 -6.425642 	 -0.933647 
H 	 1.451542 	 -4.916152 	 -0.559571 
H 	 -6.889617 	 -2.463699 	 6.224983 
O 	 -0.337909 	 1.406998 	 1.078265 
O 	 -3.118920 	 1.044023 	 -2.584303 
O 	 -5.370071 	 -1.279894 	 -0.215084 
O 	 6.260306 	 5.242585 	 6.574333 
O 	 -7.273417 	 -6.697883 	 -6.765845 
O 	 -3.514543 	 3.707283 	 -1.213082 
O 	 0.159312 	 4.264514 	 -2.177023 
O 	 1.551266 	 3.891849 	 0.749539 
O 	 1.614389 	 -7.227114 	 -3.894917 
O 	 4.648450 	 1.710688 	 -4.912208 
O 	 -2.704152 	 -0.036677 	 -0.238697 
O 	 -0.775133 	 -1.737793 	 -1.042041 
O 	 2.099588 	 0.121985 	 1.720117 
O 	 5.004533 	 -1.907136 	 5.585725 
O 	 7.272319 	 4.311097 	 3.977831 
O 	 2.185917 	 -1.718189 	 4.302008 
O 	 5.482690 	 2.375944 	 2.377604 
O 	 -1.633900 	 3.935141 	 0.900318 
O 	 5.946813 	 -4.265246 	 -7.241248 
O 	 -0.805928 	 -4.531123 	 -6.080653 
O 	 0.886579 	 4.344433 	 7.596194 
O 	 -5.771334 	 5.892322 	 6.207568 
O 	 -4.599209 	 -3.318640 	 6.890685 
O 	 2.354171 	 5.104715 	 -4.344914 
O 	 -5.973131 	 3.899731 	 1.622227 
O 	 -2.151296 	 -4.021542 	 0.013591 
O 	 0.366979 	 2.181952 	 -4.754830 
O 	 7.026224 	 6.355290 	 -1.574048 
O 	 1.552065 	 -7.256421 	 7.562354 
O 	 1.049552 	 6.673621 	 -0.593182 
O 	 6.725145 	 -5.738200 	 -0.295891 
O 	 -3.451965 	 -2.722939 	 2.349087 
O 	 2.282212 	 -3.354600 	 6.565598 
O 	 5.392670 	 5.199732 	 1.286653 
O 	 -0.470771 	 6.112819 	 4.394393 
O 	 -2.958137 	 -4.678807 	 4.460881 
O 	 3.986255 	 5.758774 	 -2.109953 
O 	 -6.945106 	 -5.974469 	 -3.274309 
O 	 -3.382144 	 -0.556023 	 -6.677961 
O 	 1.719677 	 2.934413 	 4.179264 
O 	 -3.814228 	 -5.802075 	 -5.676829 
O 	 -2.535276 	 3.864986 	 5.465652 
O 	 2.926482 	 2.717020 	 -7.117596 
O 	 4.192927 	 3.286851 	 -0.364423 
O 	 -6.434999 	 -6.756715 	 4.055412 
O 	 5.162154 	 -0.268601 	 2.743940 
O 	 -5.089231 	 3.006405 	 6.735179 
O 	 1.459555 	 -2.297788 	 -2.890267 
O 	 -3.969411 	 -6.946306 	 1.560981 
O 	 -7.289485 	 -3.638493 	 2.138552 
O 	 2.360208 	 -5.394854 	 3.745474 
O 	 1.635074 	 -3.208916 	 1.357696 
O 	 2.439274 	 1.681765 	 -2.679102 
O 	 -7.156071 	 1.152127 	 0.809772 
O 	 -4.292760 	 -0.412874 	 4.968289 
O 	 -6.488196 	 -3.605516 	 -5.177798 
O 	 4.017861 	 -4.760475 	 -2.562714 
O 	 -2.648046 	 2.339002 	 -6.782994 
O 	 6.367815 	 -7.219021 	 2.264459 
O 	 -1.874029 	 6.964888 	 -1.864940 
O 	 -6.757630 	 3.279142 	 -1.232582 
O 	 7.072025 	 2.608538 	 -6.384854 
O 	 -5.508724 	 -4.465455 	 -0.273444 
O 	 6.635576 	 -0.840445 	 -3.927931 
O 	 -0.678170 	 -1.534639 	 2.632594 
O 	 4.648391 	 -6.971444 	 7.302841 
O 	 -6.221073 	 6.562968 	 0.740123 
O 	 -1.588246 	 -0.500931 	 -4.492459 
O 	 3.682784 	 -4.967791 	 -5.237989 
O 	 2.473128 	 6.362271 	 1.964833 
O 	 3.984701 	 -7.223838 	 -0.253645 
O 	 -5.538989 	 2.206916 	 -4.822974 
O 	 -1.033923 	 0.806369 	 4.823998 
O 	 -6.952071 	 -1.188779 	 3.345951 
O 	 -0.906107 	 -5.145161 	 2.364131 
O 	 5.202451 	 -7.223121 	 -4.078079 
O 	 -4.073458 	 1.608107 	 1.968536 
O 	 4.906500 	 6.436692 	 4.215318 
O 	 4.388107 	 -3.678343 	 0.261714 
O 	 -0.716420 	 -7.337535 	 -5.513210 
O 	 -3.479320 	 6.158271 	 -5.985913 
O 	 -2.370530 	 -3.134875 	 -3.930896 
O 	 3.781635 	 -1.101622 	 -3.083587 
O 	 -2.148204 	 3.896353 	 -3.931712 
O 	 -3.506191 	 -7.250705 	 6.231503 
O 	 -3.792348 	 5.364839 	 2.998400 
O 	 -6.828537 	 1.537781 	 4.967193 
O 	 -0.432018 	 1.328943 	 -1.710170 
O 	 -4.991756 	 -1.788352 	 -3.319154 
O 	 -6.537644 	 0.505324 	 -2.157743 
O 	 1.027650 	 -1.754725 	 -5.822687 
O 	 -0.636077 	 -5.360152 	 -2.838282 
O 	 -6.318386 	 -0.500716 	 -6.594000 
O 	 6.838148 	 3.981083 	 -3.683465 
O 	 4.202887 	 -0.226191 	 -0.341080 
O 	 4.494315 	 -1.143776 	 -6.135504 
O 	 5.421069 	 1.588619 	 6.015392 
O 	 -0.110736 	 0.981385 	 -7.208556 
O 	 -4.031720 	 -5.373766 	 -2.699196 
O 	 -0.434503 	 -2.605578 	 6.213871 
O 	 -6.319066 	 5.942099 	 -5.222947 
O 	 6.616600 	 -3.414164 	 -2.631817 
O 	 -4.766402 	 6.268032 	 -2.138429 
O 	 2.283975 	 5.567011 	 5.411242 
O 	 -1.573886 	 6.721189 	 0.930788 
O 	 4.650576 	 5.585776 	 -5.681276 
O 	 0.143697 	 -6.124702 	 5.568294 
O 	 6.361648 	 -1.676070 	 0.337587 
O 	 5.354035 	 -4.929117 	 4.601274 
O 	 1.829523 	 -5.540413 	 -1.187168 
O 	 -7.265593 	 -1.585652 	 5.926308 
K 	 5.709200 	 1.675085 	 -2.004938 
