333
conformation = 32
H 	 -7.580779 	 -7.392124 	 -7.654090 
H 	 6.382845 	 -6.175217 	 7.176222 
H 	 3.790400 	 -6.957354 	 4.199070 
H 	 4.763657 	 -7.019160 	 3.149121 
H 	 2.331675 	 5.048699 	 -7.527913 
H 	 2.471677 	 5.794024 	 6.007517 
H 	 -0.079909 	 -3.443434 	 -1.820652 
H 	 -1.612432 	 -3.324385 	 -1.496704 
H 	 -0.324029 	 0.234109 	 -1.235971 
H 	 0.746160 	 -0.491825 	 -2.134422 
H 	 4.308097 	 -4.853921 	 4.271455 
H 	 3.795514 	 -3.475466 	 4.664174 
H 	 7.237378 	 -3.630933 	 3.072808 
H 	 -7.144230 	 -4.782323 	 3.927971 
H 	 -5.821674 	 -4.488861 	 6.389699 
H 	 -7.122290 	 -3.683670 	 6.653605 
H 	 -5.783941 	 0.427831 	 1.930935 
H 	 -7.155305 	 -0.132960 	 1.541275 
H 	 -3.715188 	 -5.888629 	 0.867555 
H 	 -2.354908 	 -6.371017 	 0.615814 
H 	 5.041004 	 5.751276 	 5.944390 
H 	 4.251665 	 6.883951 	 6.778939 
H 	 7.032703 	 4.057819 	 6.235259 
H 	 5.745398 	 3.824331 	 5.394961 
H 	 -5.107690 	 -7.046986 	 -6.316030 
H 	 -5.396074 	 6.316262 	 -6.480006 
H 	 -1.658990 	 5.184200 	 -3.169894 
H 	 -2.173649 	 3.798721 	 -3.594555 
H 	 -0.485676 	 -4.047402 	 -3.994731 
H 	 -0.219390 	 -3.892576 	 -5.517231 
H 	 -5.750914 	 6.413224 	 -3.874277 
H 	 -5.592511 	 4.839591 	 -3.902349 
H 	 -2.683865 	 -6.862707 	 -5.740359 
H 	 -2.116598 	 -5.437830 	 -5.352720 
H 	 4.854028 	 -4.246025 	 -6.831795 
H 	 4.893353 	 -4.427253 	 6.560787 
H 	 -1.966594 	 3.294597 	 -1.878305 
H 	 -1.874352 	 1.880353 	 -1.360950 
H 	 6.720891 	 3.226284 	 -0.241512 
H 	 5.592116 	 2.140948 	 -0.203160 
H 	 -7.064783 	 -3.425428 	 -1.123915 
H 	 6.577124 	 -3.681411 	 -0.215471 
H 	 2.846429 	 -1.373067 	 -3.082815 
H 	 2.120383 	 -2.693342 	 -2.507516 
H 	 3.195683 	 2.997950 	 -2.560982 
H 	 3.029638 	 4.163632 	 -1.557565 
H 	 -5.434379 	 -3.117874 	 2.403752 
H 	 -5.446980 	 -2.012484 	 1.346528 
H 	 2.067061 	 -3.663250 	 -6.027515 
H 	 1.519055 	 -3.816006 	 -7.391602 
H 	 3.747103 	 2.434434 	 6.240780 
H 	 4.607821 	 1.426857 	 5.661683 
H 	 6.204400 	 -6.032717 	 1.140538 
H 	 -7.174242 	 -5.706853 	 1.324713 
H 	 -1.739277 	 -1.941230 	 3.843492 
H 	 -0.428105 	 -1.808684 	 4.685767 
H 	 -5.333180 	 -1.092454 	 -1.974994 
H 	 -4.681665 	 0.347027 	 -1.554947 
H 	 -6.611735 	 -1.746355 	 4.591334 
H 	 -7.188856 	 -1.197998 	 5.874181 
H 	 -0.498933 	 1.670813 	 5.345837 
H 	 -0.771535 	 0.195209 	 4.947372 
H 	 2.963949 	 4.302493 	 -5.237946 
H 	 4.234714 	 4.452368 	 -5.999771 
H 	 -5.217311 	 3.286088 	 -1.591483 
H 	 -3.989216 	 3.485071 	 -2.418997 
H 	 -1.286642 	 -2.153774 	 -7.067544 
H 	 -0.554018 	 -3.221513 	 7.004217 
H 	 6.835645 	 -1.365191 	 -5.308595 
H 	 7.140774 	 -0.555140 	 -4.068735 
H 	 3.199695 	 2.110888 	 -4.703686 
H 	 4.867278 	 2.082333 	 -5.026052 
H 	 -3.537499 	 -2.439539 	 3.117886 
H 	 -3.663958 	 -2.232681 	 4.598277 
H 	 0.647172 	 1.556565 	 1.471604 
H 	 -0.358362 	 0.447784 	 1.790528 
H 	 4.539701 	 5.460908 	 0.021734 
H 	 3.145318 	 5.992888 	 -0.524942 
H 	 -5.877955 	 -4.802515 	 -4.637591 
H 	 -6.211700 	 -4.781245 	 -6.175593 
H 	 3.388806 	 0.464384 	 -0.154775 
H 	 2.681320 	 1.726698 	 -0.701151 
H 	 5.804238 	 -3.526096 	 -2.590388 
H 	 4.630436 	 -4.424070 	 -2.319872 
H 	 -4.649075 	 -4.661995 	 -2.284834 
H 	 -4.933510 	 -6.095387 	 -1.701083 
H 	 -2.901111 	 -5.410760 	 7.023304 
H 	 -2.886395 	 -3.985188 	 6.593287 
H 	 -0.197105 	 0.306036 	 -3.980085 
H 	 0.810677 	 -0.922263 	 -3.919221 
H 	 -1.334911 	 5.532874 	 -5.896637 
H 	 -2.659850 	 5.537643 	 -4.998850 
H 	 1.621417 	 -5.510915 	 -3.515181 
H 	 2.384413 	 -5.298215 	 -2.281258 
H 	 -6.863195 	 3.755440 	 3.730678 
H 	 -5.390133 	 3.823346 	 3.277607 
H 	 3.010237 	 0.423986 	 -7.367041 
H 	 4.300712 	 -0.496846 	 7.128660 
H 	 0.409071 	 3.692014 	 -6.326201 
H 	 0.342392 	 2.526538 	 -7.331724 
H 	 -5.407332 	 1.030249 	 -4.759616 
H 	 -5.089370 	 0.394779 	 -6.187591 
H 	 -4.986602 	 3.433988 	 7.201635 
H 	 -5.930323 	 2.717114 	 -6.740192 
H 	 -5.206444 	 -5.521272 	 2.809899 
H 	 -5.836607 	 -6.689730 	 3.511005 
H 	 0.154601 	 7.404522 	 -7.507857 
H 	 -1.076237 	 -6.592727 	 -7.302472 
H 	 4.263452 	 6.490115 	 -3.759400 
H 	 2.902591 	 6.053568 	 -3.165924 
H 	 -0.310958 	 3.180472 	 -0.045009 
H 	 1.101301 	 3.537976 	 -0.486839 
H 	 -2.697480 	 2.929758 	 3.270807 
H 	 -3.542329 	 2.074117 	 4.279344 
H 	 3.433212 	 -6.135026 	 -0.248261 
H 	 4.634609 	 -6.900974 	 -0.857677 
H 	 -0.767539 	 0.010402 	 -7.572857 
H 	 -0.253202 	 -0.288602 	 -6.154371 
H 	 4.477243 	 -1.519494 	 3.407954 
H 	 5.748938 	 -0.647149 	 3.264305 
H 	 1.176065 	 -3.911943 	 5.389267 
H 	 0.487560 	 -5.234603 	 4.842873 
H 	 -0.084503 	 -5.977753 	 -0.140121 
H 	 -1.002148 	 -6.388796 	 -1.342007 
H 	 1.851192 	 3.728888 	 5.517127 
H 	 2.197142 	 2.446468 	 4.742553 
H 	 -0.870556 	 6.160928 	 1.004994 
H 	 -0.859335 	 4.710682 	 1.613132 
H 	 7.092102 	 4.649659 	 -6.445573 
H 	 7.011268 	 5.237326 	 -5.003250 
H 	 -2.226741 	 -0.176412 	 -2.970173 
H 	 -2.422951 	 -0.585590 	 -1.474601 
H 	 2.226833 	 -1.591757 	 6.394528 
H 	 0.787773 	 -1.401579 	 6.706102 
H 	 6.529864 	 6.240290 	 1.467195 
H 	 5.402266 	 5.401219 	 2.300632 
H 	 -4.125376 	 2.351265 	 1.236521 
H 	 -5.464813 	 2.167920 	 0.445527 
H 	 -5.210942 	 -2.069564 	 7.236015 
H 	 -4.868681 	 -3.079853 	 -6.596513 
H 	 -4.360704 	 -0.307208 	 5.607135 
H 	 -3.105398 	 -0.782723 	 6.519538 
H 	 1.127828 	 -5.671887 	 1.486402 
H 	 2.327671 	 -6.461683 	 2.170681 
H 	 6.824132 	 -7.278855 	 -3.751563 
H 	 6.001113 	 7.409323 	 -5.089115 
H 	 1.125691 	 6.115574 	 -5.505487 
H 	 0.310225 	 5.443880 	 -4.401727 
H 	 5.895155 	 1.621559 	 -7.053012 
H 	 7.071671 	 1.614962 	 -6.103207 
H 	 -2.938156 	 0.370475 	 1.606042 
H 	 -1.790470 	 -0.251953 	 2.416111 
H 	 2.716624 	 7.356890 	 -6.060191 
H 	 2.372048 	 -6.191103 	 -6.580068 
H 	 -2.202911 	 -2.317875 	 -3.721858 
H 	 -2.692925 	 -1.474020 	 -4.954825 
H 	 -2.353296 	 2.991936 	 6.654824 
H 	 -2.812709 	 1.558463 	 6.421659 
H 	 -7.164720 	 -0.372912 	 -0.686663 
H 	 6.809989 	 -1.523934 	 -1.077730 
H 	 3.023294 	 -2.254405 	 0.096032 
H 	 4.037415 	 -1.943884 	 -0.923622 
H 	 4.702019 	 3.355209 	 1.723421 
H 	 4.965449 	 3.093828 	 3.167144 
H 	 -4.299516 	 6.113708 	 2.625284 
H 	 -2.876188 	 5.654986 	 2.691076 
H 	 4.660245 	 -4.653048 	 1.729056 
H 	 4.715655 	 -3.159087 	 1.270201 
H 	 5.120091 	 -1.098662 	 -3.488160 
H 	 4.179733 	 0.139913 	 -3.539504 
H 	 3.701748 	 -1.663102 	 -6.001485 
H 	 4.244829 	 -2.511344 	 -4.794379 
H 	 0.279583 	 7.239344 	 -3.658655 
H 	 -0.005119 	 -6.749409 	 -4.926815 
H 	 6.829352 	 -7.309147 	 5.210963 
H 	 7.029487 	 6.995347 	 3.760561 
H 	 1.368964 	 5.061085 	 2.011719 
H 	 2.472710 	 4.582267 	 2.908271 
H 	 0.761987 	 6.946940 	 3.844415 
H 	 0.987980 	 -7.159696 	 5.196370 
H 	 -6.051813 	 4.866987 	 1.110590 
H 	 -5.084747 	 5.386954 	 -0.104549 
H 	 6.877762 	 2.043656 	 2.521383 
H 	 7.009173 	 2.143692 	 4.074627 
H 	 1.520486 	 6.969222 	 0.284786 
H 	 0.789803 	 6.750012 	 -1.055829 
H 	 -0.954910 	 -3.613051 	 2.480924 
H 	 -1.375860 	 -3.838993 	 1.003960 
H 	 -3.869165 	 6.944896 	 6.742191 
H 	 -3.803397 	 6.135856 	 5.351313 
H 	 -3.573891 	 6.920582 	 -0.173961 
H 	 -3.086837 	 5.509855 	 -0.680960 
H 	 -2.214869 	 -7.371749 	 -3.163737 
H 	 -3.095215 	 -6.300444 	 -2.487020 
H 	 -7.090531 	 -6.955177 	 -1.010664 
H 	 -6.607668 	 6.488062 	 -1.215370 
H 	 2.623817 	 0.290426 	 3.709612 
H 	 3.246128 	 1.407503 	 2.877441 
H 	 6.270334 	 5.249609 	 -2.117694 
H 	 5.296795 	 4.050141 	 -2.413110 
H 	 0.853341 	 -1.387632 	 0.710272 
H 	 0.569634 	 -2.835168 	 1.313617 
H 	 0.225129 	 3.191613 	 3.764283 
H 	 -0.680526 	 4.187526 	 4.656588 
H 	 1.823505 	 -1.759783 	 3.761339 
H 	 2.200746 	 -1.899928 	 2.263970 
H 	 -6.432758 	 -2.405612 	 -3.683157 
H 	 -4.838133 	 -2.487374 	 -3.680613 
H 	 5.852882 	 -2.367902 	 6.969560 
H 	 5.604675 	 -1.509086 	 5.617030 
H 	 -2.801440 	 -1.958364 	 0.648712 
H 	 -3.519525 	 -3.174273 	 0.118697 
H 	 -7.396650 	 1.776384 	 -2.897922 
H 	 -6.556879 	 0.561672 	 -2.634724 
H 	 -0.328926 	 5.262861 	 6.367682 
H 	 -1.858705 	 5.677917 	 6.227117 
H 	 -2.948812 	 2.125916 	 -5.680189 
H 	 -1.476737 	 2.310352 	 -5.274735 
H 	 -6.770976 	 0.789181 	 5.405074 
H 	 -6.454155 	 2.195537 	 6.176371 
H 	 0.167287 	 5.577066 	 -2.344073 
O 	 6.399562 	 -7.119175 	 -7.631180 
O 	 3.919358 	 -6.548936 	 3.334233 
O 	 1.802316 	 5.301551 	 6.546517 
O 	 -0.931271 	 -3.169408 	 -2.184564 
O 	 0.642036 	 0.136686 	 -1.400818 
O 	 3.921508 	 -4.367975 	 5.025189 
O 	 -6.882462 	 -3.873827 	 3.621956 
O 	 -6.706439 	 -4.558890 	 6.746676 
O 	 -6.394682 	 -0.324621 	 2.116153 
O 	 -3.118170 	 -6.543804 	 1.217378 
O 	 4.245832 	 6.336644 	 5.962250 
O 	 6.488909 	 4.450422 	 5.523404 
O 	 -5.365959 	 7.187454 	 -6.970203 
O 	 -2.513607 	 4.624584 	 -3.192702 
O 	 -0.910857 	 -3.994575 	 -4.862616 
O 	 -5.958402 	 5.618810 	 -4.371861 
O 	 -2.577660 	 -5.966364 	 -6.097595 
O 	 5.475868 	 -4.264004 	 -7.560547 
O 	 -1.674573 	 2.809868 	 -1.060632 
O 	 6.185184 	 2.668792 	 0.348923 
O 	 6.869671 	 -3.449964 	 -1.128401 
O 	 1.998517 	 -1.913760 	 -3.063005 
O 	 2.529282 	 3.587692 	 -2.170532 
O 	 -5.002688 	 -2.835929 	 1.579623 
O 	 1.491894 	 -4.255097 	 -6.544124 
O 	 4.694228 	 2.204441 	 6.235929 
O 	 7.092757 	 -5.976538 	 0.647985 
O 	 -0.816392 	 -1.528341 	 3.814494 
O 	 -5.226968 	 -0.440585 	 -1.237388 
O 	 -6.345388 	 -1.169137 	 5.341402 
O 	 -0.309917 	 0.732370 	 5.611759 
O 	 3.317004 	 4.153265 	 -6.150074 
O 	 -4.815436 	 2.959506 	 -2.435966 
O 	 -1.434479 	 -2.828266 	 7.120506 
O 	 6.922183 	 -1.468577 	 -4.337554 
O 	 4.127385 	 1.957238 	 -4.374170 
O 	 -3.345817 	 -2.876200 	 3.947218 
O 	 0.505863 	 0.793007 	 2.088085 
O 	 3.964886 	 5.469121 	 -0.747012 
O 	 -5.858693 	 -5.325414 	 -5.454142 
O 	 3.453993 	 1.436543 	 -0.207058 
O 	 5.029877 	 -3.879596 	 -2.999921 
O 	 -4.550391 	 -5.220270 	 -1.514545 
O 	 -3.320271 	 -4.845382 	 6.341656 
O 	 0.565944 	 -0.080186 	 -4.409597 
O 	 -2.317248 	 5.725146 	 -5.908830 
O 	 1.598891 	 -4.901798 	 -2.735756 
O 	 -6.281790 	 3.925413 	 2.941971 
O 	 3.353616 	 -0.289252 	 6.954038 
O 	 -0.109310 	 2.903776 	 -6.571874 
O 	 -5.140042 	 1.197882 	 -5.667206 
O 	 -5.942206 	 3.402430 	 -7.444253 
O 	 -5.088309 	 -6.492664 	 2.919335 
O 	 -0.436595 	 -6.898516 	 6.896949 
O 	 3.394972 	 6.105607 	 -4.020555 
O 	 0.563528 	 3.478277 	 0.348532 
O 	 -3.336795 	 2.200121 	 3.334707 
O 	 4.322397 	 -6.000309 	 -0.614700 
O 	 -1.089982 	 -0.315196 	 -6.695730 
O 	 5.379610 	 -1.382073 	 3.802021 
O 	 0.354917 	 -4.296528 	 5.058299 
O 	 -0.814331 	 -6.550824 	 -0.395892 
O 	 1.668031 	 2.751873 	 5.532024 
O 	 -1.119117 	 5.642449 	 1.778186 
O 	 6.492556 	 4.725852 	 -5.667483 
O 	 -2.223391 	 0.172122 	 -2.041246 
O 	 1.358228 	 -2.070852 	 6.276428 
O 	 5.741546 	 6.290351 	 2.044622 
O 	 -4.679921 	 1.700220 	 0.767768 
O 	 -4.774766 	 -2.103916 	 -6.773016 
O 	 -3.389838 	 -0.203383 	 5.775633 
O 	 2.037494 	 -5.948494 	 1.382308 
O 	 6.039773 	 7.220230 	 -4.103688 
O 	 0.499400 	 5.392990 	 -5.402322 
O 	 6.152778 	 1.314807 	 -6.173822 
O 	 -2.280877 	 -0.356059 	 1.587906 
O 	 3.046995 	 -6.884420 	 -6.699845 
O 	 -2.960480 	 -1.877854 	 -4.106891 
O 	 -3.156280 	 2.451071 	 6.610910 
O 	 6.841911 	 -0.686990 	 -0.590191 
O 	 3.928057 	 -1.923723 	 0.053312 
O 	 4.493289 	 3.753182 	 2.586171 
O 	 -3.713310 	 5.563888 	 3.186434 
O 	 5.215854 	 -3.836363 	 1.817944 
O 	 4.206532 	 -0.795545 	 -3.282852 
O 	 3.759716 	 -2.578466 	 -5.632655 
O 	 0.707396 	 -6.921217 	 -4.272310 
O 	 7.291713 	 -7.156428 	 4.349867 
O 	 1.779115 	 5.256430 	 2.875287 
O 	 0.934284 	 -7.070287 	 4.228442 
O 	 -5.926724 	 4.876341 	 0.135769 
O 	 6.384653 	 1.924746 	 3.342760 
O 	 1.705800 	 6.598728 	 -0.635831 
O 	 -0.758228 	 -4.186182 	 1.688721 
O 	 -3.418849 	 6.857710 	 5.871620 
O 	 -3.754347 	 6.204625 	 -0.795764 
O 	 -2.251605 	 -6.414938 	 -3.036404 
O 	 -6.740478 	 7.352161 	 -1.706577 
O 	 3.194601 	 1.068744 	 3.784375 
O 	 6.149628 	 4.291866 	 -2.019375 
O 	 1.254356 	 -2.252825 	 0.879099 
O 	 -0.657971 	 3.510578 	 3.922806 
O 	 2.598534 	 -1.674735 	 3.162736 
O 	 -5.640694 	 -2.784821 	 -3.208812 
O 	 5.949191 	 -1.456761 	 6.566358 
O 	 -2.681977 	 -2.705155 	 0.018484 
O 	 -7.013472 	 0.993484 	 -3.383097 
O 	 -1.210998 	 4.947174 	 6.102128 
O 	 -2.394485 	 2.169227 	 -4.909806 
O 	 -6.515190 	 1.712670 	 5.331340 
O 	 -0.458678 	 5.956218 	 -3.003296 
K 	 -2.092205 	 -6.039852 	 4.042832 
