333
conformation = 25
H 	 5.546066 	 -7.572792 	 6.348697 
H 	 4.297548 	 -6.545758 	 6.507098 
H 	 1.177950 	 -7.439541 	 2.809569 
H 	 2.179409 	 7.003840 	 1.692309 
H 	 0.073836 	 4.449743 	 6.100382 
H 	 0.740161 	 5.469562 	 5.126095 
H 	 -2.344633 	 -4.012017 	 -2.942188 
H 	 -3.577641 	 -3.278050 	 -2.286187 
H 	 -2.293719 	 -0.152222 	 -2.677751 
H 	 -0.953817 	 -0.845736 	 -2.601586 
H 	 2.196852 	 -5.468792 	 3.335892 
H 	 1.950268 	 -3.957831 	 3.599598 
H 	 5.155047 	 -4.033256 	 2.500710 
H 	 5.753323 	 -5.292003 	 3.168356 
H 	 7.257698 	 -5.220110 	 5.472883 
H 	 6.088314 	 -4.430172 	 4.952989 
H 	 7.253843 	 -0.178806 	 0.535051 
H 	 5.747279 	 -0.494590 	 0.815105 
H 	 -5.703530 	 -6.404655 	 -0.374684 
H 	 -4.160507 	 -6.678360 	 -0.327841 
H 	 3.243212 	 5.654649 	 4.857178 
H 	 2.461766 	 6.757108 	 5.705027 
H 	 5.470116 	 4.459576 	 4.631751 
H 	 4.324926 	 3.359501 	 4.620879 
H 	 -7.443096 	 -7.610540 	 -7.311497 
H 	 -7.408233 	 5.859343 	 7.433980 
H 	 -3.673549 	 4.548632 	 -3.931950 
H 	 -4.445483 	 3.315953 	 -4.572320 
H 	 -2.356368 	 -3.852071 	 -5.246812 
H 	 -1.828114 	 -4.729555 	 -6.493423 
H 	 -7.235002 	 5.665409 	 -4.818583 
H 	 7.259630 	 4.242517 	 -5.039339 
H 	 -4.841898 	 -6.973441 	 -6.763782 
H 	 -4.042868 	 -5.631454 	 -6.421849 
H 	 2.846706 	 -4.366465 	 6.995120 
H 	 2.784881 	 -4.915494 	 5.564845 
H 	 -3.807408 	 3.195615 	 -2.842799 
H 	 -4.169757 	 1.717728 	 -2.417171 
H 	 3.817709 	 2.755191 	 -1.538921 
H 	 3.516096 	 1.389880 	 -0.931588 
H 	 5.911255 	 -3.880636 	 -2.965910 
H 	 5.494788 	 -4.689774 	 -1.716324 
H 	 0.654082 	 -2.191619 	 -3.821757 
H 	 -0.161828 	 -3.468932 	 -4.269285 
H 	 0.919186 	 2.623755 	 -3.872161 
H 	 1.549497 	 3.420680 	 -2.709442 
H 	 7.000050 	 -3.870605 	 1.100016 
H 	 7.349172 	 -2.386263 	 0.898778 
H 	 0.125774 	 -4.745068 	 -7.148158 
H 	 -0.577033 	 -3.850169 	 6.674337 
H 	 1.790966 	 2.494488 	 5.390257 
H 	 2.381937 	 1.614939 	 4.302241 
H 	 4.538577 	 -5.598231 	 0.226318 
H 	 5.591533 	 -6.558819 	 0.772147 
H 	 -3.529658 	 -2.552120 	 3.155659 
H 	 -2.098252 	 -2.482287 	 3.578053 
H 	 -7.167123 	 -1.619988 	 -2.681002 
H 	 -6.439552 	 -0.371693 	 -2.103409 
H 	 6.150061 	 -1.760643 	 3.494818 
H 	 5.377159 	 -1.883992 	 4.846733 
H 	 -1.923149 	 1.084586 	 4.390955 
H 	 -2.879855 	 -0.033885 	 3.931640 
H 	 1.445550 	 4.547995 	 -6.363845 
H 	 2.566693 	 3.875502 	 -7.112029 
H 	 7.388931 	 3.123718 	 -2.818472 
H 	 -6.191857 	 3.230014 	 -3.619731 
H 	 -3.344235 	 -2.563058 	 6.801473 
H 	 -3.040107 	 -4.108270 	 6.604407 
H 	 4.715441 	 -1.924023 	 -6.153134 
H 	 5.172736 	 -1.145295 	 -4.880722 
H 	 1.999257 	 2.483342 	 -5.801126 
H 	 2.850537 	 1.185914 	 -5.706090 
H 	 -6.084472 	 -3.079193 	 2.570933 
H 	 -5.492484 	 -2.522268 	 3.872566 
H 	 -1.278479 	 1.091410 	 0.645429 
H 	 -2.554545 	 0.236911 	 0.659302 
H 	 2.038459 	 5.384269 	 -0.687937 
H 	 1.039122 	 5.487494 	 -1.841980 
H 	 7.203734 	 -4.889624 	 -5.575433 
H 	 6.425819 	 -5.457415 	 -6.791140 
H 	 1.438093 	 0.064260 	 -1.223664 
H 	 0.824790 	 1.319509 	 -1.701440 
H 	 3.453873 	 -3.776728 	 -4.132090 
H 	 3.056418 	 -5.056383 	 -3.334495 
H 	 -6.721003 	 -4.662841 	 -2.480158 
H 	 -7.337969 	 -6.062263 	 -2.109296 
H 	 -5.344382 	 -5.558691 	 5.924224 
H 	 -4.912553 	 -4.208163 	 5.423784 
H 	 -1.811159 	 -0.222238 	 -4.667084 
H 	 -0.957414 	 -1.343244 	 -5.104232 
H 	 -3.371785 	 5.352606 	 -6.661433 
H 	 -4.676455 	 5.239179 	 -5.890952 
H 	 -0.663775 	 -6.130134 	 -3.858529 
H 	 0.670303 	 -5.390548 	 -4.145271 
H 	 6.623453 	 4.570718 	 2.419210 
H 	 -7.430912 	 3.248733 	 2.139524 
H 	 1.404910 	 0.389934 	 5.754651 
H 	 2.373968 	 -0.830352 	 5.801746 
H 	 -1.780439 	 3.396048 	 -7.170812 
H 	 -1.261773 	 2.230753 	 6.886240 
H 	 7.124225 	 1.123540 	 -5.792436 
H 	 -7.172168 	 0.001786 	 -6.746365 
H 	 -7.030872 	 3.233124 	 6.163181 
H 	 7.273736 	 2.268512 	 7.182379 
H 	 -6.879193 	 -5.940474 	 2.148537 
H 	 7.425119 	 -7.207755 	 2.791499 
H 	 -1.915605 	 6.708607 	 6.248204 
H 	 -2.966141 	 -7.114875 	 6.568089 
H 	 1.925549 	 5.980261 	 -4.736753 
H 	 0.870229 	 4.965591 	 -4.420313 
H 	 -2.018072 	 2.420832 	 -1.048557 
H 	 -0.615702 	 3.192599 	 -0.883405 
H 	 -4.335769 	 1.929597 	 2.654268 
H 	 -5.731929 	 2.099501 	 3.262979 
H 	 1.582722 	 -6.163431 	 -1.230951 
H 	 2.535314 	 -7.109955 	 -1.917470 
H 	 -2.980713 	 -0.189354 	 6.403877 
H 	 -2.500643 	 -0.323632 	 -7.007080 
H 	 2.344477 	 -1.492836 	 2.743301 
H 	 3.615162 	 -0.686844 	 2.869903 
H 	 -0.921440 	 -4.216987 	 4.427433 
H 	 -1.138304 	 -5.604702 	 3.851539 
H 	 -2.345987 	 -6.107008 	 -1.332338 
H 	 -3.239331 	 -6.935258 	 -2.280741 
H 	 -0.315921 	 3.219969 	 4.783430 
H 	 0.170194 	 1.897406 	 4.018534 
H 	 -3.101051 	 5.614071 	 0.056686 
H 	 -2.766880 	 4.405073 	 0.866096 
H 	 5.146759 	 4.465289 	 7.533426 
H 	 4.790171 	 4.965825 	 -5.999029 
H 	 -5.112620 	 -0.670103 	 -3.881985 
H 	 -4.497548 	 -1.271980 	 -2.603937 
H 	 0.105977 	 -1.713407 	 5.696677 
H 	 -1.482348 	 -2.081805 	 5.803508 
H 	 4.310334 	 6.014351 	 0.220263 
H 	 3.519362 	 4.918728 	 1.012525 
H 	 -6.368668 	 1.513815 	 0.658260 
H 	 -7.064658 	 1.842670 	 -0.688852 
H 	 7.298246 	 -2.831461 	 6.353326 
H 	 -6.609096 	 -3.302436 	 7.425123 
H 	 -6.128307 	 -0.022214 	 4.234275 
H 	 -5.892379 	 -0.780865 	 5.532642 
H 	 -0.423862 	 -5.768503 	 0.753097 
H 	 0.868151 	 -6.664458 	 1.020298 
H 	 4.939686 	 -7.602006 	 -4.515436 
H 	 4.491497 	 7.136159 	 -5.984281 
H 	 -1.064399 	 6.058100 	 -6.460908 
H 	 -1.618236 	 4.935637 	 -5.551909 
H 	 3.480165 	 1.102935 	 6.780449 
H 	 4.587102 	 1.881613 	 7.545293 
H 	 -5.040187 	 -0.117774 	 0.593513 
H 	 -4.411584 	 -0.825536 	 1.817836 
H 	 1.051596 	 -7.028113 	 -6.749863 
H 	 0.285884 	 -6.583675 	 6.817174 
H 	 -4.422652 	 -2.896895 	 -4.763023 
H 	 -5.065828 	 -2.121487 	 -6.066326 
H 	 -4.390841 	 2.830820 	 5.462095 
H 	 -4.755091 	 1.388569 	 5.428757 
H 	 5.702745 	 -0.944867 	 -1.575564 
H 	 4.669451 	 -2.001338 	 -1.789400 
H 	 0.927145 	 -2.576258 	 -0.954695 
H 	 2.330393 	 -2.274848 	 -1.689190 
H 	 2.914235 	 2.745739 	 0.589941 
H 	 3.125534 	 2.744252 	 2.138471 
H 	 -5.862348 	 6.017359 	 1.757924 
H 	 -4.698464 	 4.994263 	 1.642245 
H 	 2.281841 	 -4.792424 	 0.865512 
H 	 3.036190 	 -3.549800 	 0.497832 
H 	 3.190439 	 -1.357252 	 -4.704428 
H 	 2.051434 	 -0.243976 	 -4.685300 
H 	 1.455935 	 -2.209341 	 -7.267302 
H 	 1.628519 	 -3.204057 	 -5.969791 
H 	 -1.651532 	 6.725864 	 -4.773620 
H 	 -2.119295 	 -6.752525 	 -5.170195 
H 	 5.114745 	 -7.312707 	 4.319296 
H 	 4.434053 	 -7.534997 	 2.964920 
H 	 -0.604718 	 4.200156 	 1.296854 
H 	 0.699237 	 4.802005 	 1.722753 
H 	 -0.630520 	 6.912301 	 2.445195 
H 	 -1.370593 	 6.619403 	 3.773847 
H 	 6.463949 	 4.400750 	 -0.043104 
H 	 -7.118732 	 4.550359 	 -0.810139 
H 	 4.996894 	 1.824394 	 1.573906 
H 	 5.194084 	 1.238791 	 2.990336 
H 	 -0.848865 	 7.198634 	 -1.107291 
H 	 -1.292145 	 6.281719 	 -2.251988 
H 	 -2.393408 	 -3.976632 	 1.776529 
H 	 -3.562217 	 -4.056761 	 0.750621 
H 	 -6.117221 	 6.524563 	 5.410234 
H 	 -5.773823 	 5.851164 	 4.014768 
H 	 -5.042665 	 6.270791 	 -0.849901 
H 	 -5.051436 	 5.405905 	 -2.174561 
H 	 -4.093464 	 7.132379 	 -3.899892 
H 	 -5.022769 	 -6.515804 	 -3.500187 
H 	 5.345119 	 -7.467525 	 -1.748427 
H 	 6.177295 	 6.246191 	 -2.072528 
H 	 0.918053 	 -0.072920 	 2.234359 
H 	 1.805289 	 1.110064 	 1.935065 
H 	 4.553012 	 4.794642 	 -3.168212 
H 	 3.621323 	 3.740353 	 -3.767903 
H 	 -1.339150 	 -1.800230 	 -0.412255 
H 	 -1.587239 	 -3.247548 	 0.014209 
H 	 -1.937147 	 2.831133 	 2.729812 
H 	 -2.843322 	 3.701828 	 3.655412 
H 	 -0.176250 	 -2.500910 	 3.088983 
H 	 -0.167219 	 -2.148762 	 1.580833 
H 	 6.687711 	 -2.660549 	 -4.492188 
H 	 -6.582248 	 -2.550711 	 -4.535790 
H 	 3.697262 	 -2.684694 	 6.015821 
H 	 3.669271 	 -1.660877 	 4.814184 
H 	 -4.615813 	 -2.427297 	 -0.328500 
H 	 -5.698534 	 -3.243024 	 -0.857557 
H 	 4.960092 	 0.969648 	 -4.168227 
H 	 6.168860 	 0.308547 	 -3.362697 
H 	 -3.094387 	 4.007135 	 5.902184 
H 	 -3.830320 	 5.257971 	 5.207728 
H 	 -5.119194 	 1.461731 	 -6.103937 
H 	 -3.662462 	 1.585631 	 -6.419303 
H 	 6.622251 	 0.240195 	 4.460113 
H 	 6.596159 	 1.653266 	 5.025620 
H 	 -1.645057 	 4.682997 	 -3.471295 
O 	 4.600079 	 -7.402793 	 6.111997 
O 	 1.910020 	 -7.119110 	 2.239157 
O 	 -0.080179 	 4.925487 	 5.263763 
O 	 -3.090691 	 -3.414528 	 -3.136585 
O 	 -1.563658 	 -0.336087 	 -2.050433 
O 	 1.885617 	 -4.826680 	 4.003002 
O 	 5.997338 	 -4.482657 	 2.686070 
O 	 6.412541 	 -4.882375 	 5.757517 
O 	 6.649779 	 -0.604074 	 1.170095 
O 	 -5.028226 	 -6.908799 	 0.093619 
O 	 2.343935 	 6.075004 	 4.996515 
O 	 4.637062 	 4.198756 	 4.218693 
O 	 7.372701 	 6.653616 	 6.866452 
O 	 -4.642739 	 4.258511 	 -4.326190 
O 	 -2.628748 	 -4.322865 	 -6.044629 
O 	 7.080563 	 5.131716 	 -5.391514 
O 	 -4.415409 	 -6.197510 	 -7.117966 
O 	 3.442449 	 -4.596812 	 6.264709 
O 	 -3.602889 	 2.461098 	 -2.252291 
O 	 4.141986 	 2.134143 	 -0.830741 
O 	 5.303814 	 -3.862623 	 -2.207529 
O 	 -0.231218 	 -2.568107 	 -3.902976 
O 	 0.682386 	 3.207420 	 -3.136537 
O 	 -7.236949 	 -3.287778 	 0.678949 
O 	 -0.661240 	 -4.728121 	 7.165290 
O 	 2.496837 	 1.862616 	 5.238068 
O 	 5.170290 	 -6.307461 	 -0.048368 
O 	 -2.718367 	 -2.073215 	 2.937242 
O 	 -7.303366 	 -0.773639 	 -2.274348 
O 	 6.270929 	 -1.778732 	 4.473476 
O 	 -2.579768 	 0.418013 	 4.739339 
O 	 1.620592 	 3.822161 	 -6.984346 
O 	 -6.895552 	 2.613627 	 -3.361569 
O 	 -3.652747 	 -3.394055 	 6.404429 
O 	 4.655309 	 -1.953444 	 -5.175182 
O 	 2.094187 	 1.657552 	 -5.287308 
O 	 -5.247237 	 -3.016405 	 3.062155 
O 	 -1.723617 	 0.391702 	 1.178638 
O 	 1.956542 	 5.238139 	 -1.635951 
O 	 7.136512 	 -5.680564 	 -6.158673 
O 	 1.487710 	 1.030132 	 -1.045751 
O 	 2.817296 	 -4.493565 	 -4.092220 
O 	 -6.518401 	 -5.608051 	 -2.346914 
O 	 -5.439806 	 -4.994665 	 5.127828 
O 	 -1.303138 	 -0.494763 	 -5.422954 
O 	 -4.315577 	 5.480032 	 -6.767882 
O 	 -0.164880 	 -5.303150 	 -3.617325 
O 	 6.580600 	 3.620365 	 2.207336 
O 	 1.458408 	 -0.571610 	 6.044113 
O 	 -2.067824 	 2.624219 	 7.209176 
O 	 -7.262576 	 0.972427 	 -6.599288 
O 	 6.990480 	 2.913041 	 6.463557 
O 	 -6.999619 	 -6.889823 	 2.024578 
O 	 -2.254564 	 -7.332518 	 5.911560 
O 	 1.123428 	 5.611616 	 -5.127998 
O 	 -1.413446 	 2.882947 	 -0.439266 
O 	 -5.263637 	 1.688702 	 2.509516 
O 	 2.523626 	 -6.192734 	 -1.530896 
O 	 -3.123448 	 -0.700491 	 7.230083 
O 	 3.276774 	 -1.601134 	 2.983929 
O 	 -1.619998 	 -4.763225 	 4.023027 
O 	 -2.922083 	 -6.883707 	 -1.340441 
O 	 -0.124359 	 2.265609 	 4.882327 
O 	 -3.205388 	 5.274663 	 0.952084 
O 	 4.346310 	 4.544442 	 -6.783250 
O 	 -4.816343 	 -0.455401 	 -2.986914 
O 	 -0.602634 	 -2.366005 	 5.478732 
O 	 3.643652 	 5.896851 	 0.910652 
O 	 -6.485694 	 1.167123 	 -0.269465 
O 	 -6.948020 	 -2.477922 	 7.006460 
O 	 -5.459126 	 -0.580912 	 4.663451 
O 	 0.040638 	 -6.565628 	 0.470706 
O 	 4.206108 	 6.938779 	 -5.028946 
O 	 -1.412208 	 5.161099 	 -6.460572 
O 	 4.157150 	 1.017694 	 7.474049 
O 	 -4.309541 	 -0.698208 	 0.871996 
O 	 1.077348 	 -7.062326 	 7.172557 
O 	 -5.038389 	 -2.202688 	 -5.097645 
O 	 -5.166722 	 2.261555 	 5.590399 
O 	 4.782052 	 -1.106225 	 -1.334423 
O 	 1.893780 	 -2.500645 	 -0.830083 
O 	 2.699539 	 3.257831 	 1.410330 
O 	 -5.566995 	 5.143566 	 2.121053 
O 	 3.194563 	 -4.465249 	 0.748914 
O 	 2.402291 	 -1.006351 	 -4.211038 
O 	 1.771626 	 -3.077386 	 -6.919158 
O 	 -1.305860 	 -7.276590 	 -5.124926 
O 	 5.285295 	 -7.195724 	 3.358279 
O 	 -0.237694 	 4.854099 	 1.892236 
O 	 -1.046145 	 -7.560785 	 3.210725 
O 	 6.830182 	 4.717221 	 -0.898515 
O 	 4.497509 	 1.353656 	 2.269560 
O 	 -0.656172 	 6.317132 	 -1.516376 
O 	 -2.698970 	 -4.461355 	 0.990211 
O 	 -5.442156 	 6.491271 	 4.686113 
O 	 -5.591874 	 5.650013 	 -1.389984 
O 	 -4.133607 	 -6.809440 	 -3.898905 
O 	 5.792943 	 7.071030 	 -2.506389 
O 	 1.439917 	 0.609270 	 2.685941 
O 	 4.321317 	 3.850892 	 -3.096026 
O 	 -0.903667 	 -2.565598 	 -0.042024 
O 	 -2.837125 	 3.119088 	 2.865045 
O 	 0.402409 	 -2.164161 	 2.375513 
O 	 -7.388920 	 -3.045650 	 -4.167768 
O 	 3.917361 	 -1.775198 	 5.753148 
O 	 -4.760186 	 -3.119946 	 -1.045530 
O 	 5.751485 	 0.365615 	 -4.245139 
O 	 -3.084213 	 4.593318 	 5.121260 
O 	 -4.282975 	 1.633389 	 -5.655792 
O 	 6.708806 	 1.165089 	 4.190822 
O 	 -2.226730 	 5.380117 	 -3.817652 
K 	 -4.067107 	 -6.598755 	 3.085254 
