333
conformation = 33
H 	 -7.623402 	 -7.402204 	 -7.629565 
H 	 6.324636 	 -6.076182 	 -7.621994 
H 	 3.763059 	 -6.991022 	 4.200131 
H 	 4.723111 	 -6.926018 	 3.036197 
H 	 2.162504 	 5.002424 	 -7.559591 
H 	 2.408276 	 5.865641 	 6.061795 
H 	 -0.122668 	 -3.436439 	 -1.811076 
H 	 -1.698676 	 -3.344525 	 -1.625661 
H 	 -0.337535 	 0.202560 	 -1.337214 
H 	 0.701411 	 -0.458413 	 -2.182947 
H 	 4.183539 	 -4.871003 	 4.261093 
H 	 3.680652 	 -3.407561 	 4.597449 
H 	 7.137071 	 -3.548625 	 3.083362 
H 	 -7.212223 	 -4.624334 	 4.033768 
H 	 -5.851000 	 -4.360638 	 6.318948 
H 	 -7.231567 	 -3.675189 	 6.646084 
H 	 -5.834640 	 0.444131 	 2.020920 
H 	 -7.197605 	 -0.134214 	 1.442375 
H 	 -3.831019 	 -5.794388 	 0.925710 
H 	 -2.370808 	 -6.393234 	 0.625349 
H 	 4.940289 	 5.777670 	 5.999546 
H 	 4.157236 	 6.872449 	 6.739542 
H 	 6.988030 	 4.087367 	 6.224267 
H 	 5.696921 	 3.830673 	 5.354106 
H 	 -5.143867 	 -6.966825 	 -6.319383 
H 	 -5.337506 	 6.453785 	 -6.438553 
H 	 -1.683485 	 5.315194 	 -3.232973 
H 	 -2.302775 	 3.777979 	 -3.588221 
H 	 -0.649220 	 -4.144108 	 -3.968872 
H 	 -0.234156 	 -3.949764 	 -5.507077 
H 	 -5.943821 	 6.438567 	 -3.785795 
H 	 -5.592911 	 4.950923 	 -3.883561 
H 	 -2.579335 	 -6.915547 	 -5.866216 
H 	 -2.139846 	 -5.382082 	 -5.530732 
H 	 4.822159 	 -4.161763 	 -6.793595 
H 	 4.782684 	 -4.449894 	 6.582132 
H 	 -1.883082 	 3.373120 	 -1.869275 
H 	 -1.808909 	 1.887423 	 -1.238910 
H 	 6.742859 	 3.215596 	 -0.252903 
H 	 5.516563 	 2.328296 	 -0.275970 
H 	 -7.149543 	 -3.447892 	 -1.001472 
H 	 6.428952 	 -3.852993 	 -0.332500 
H 	 2.793533 	 -1.321092 	 -3.117337 
H 	 2.093762 	 -2.694411 	 -2.644162 
H 	 3.085436 	 3.041707 	 -2.658730 
H 	 3.033931 	 4.184832 	 -1.612576 
H 	 -5.486338 	 -2.952702 	 2.383148 
H 	 -5.355800 	 -1.848849 	 1.323737 
H 	 2.070967 	 -3.568201 	 -6.031166 
H 	 1.457854 	 -3.833123 	 -7.478121 
H 	 3.695085 	 2.445120 	 6.252316 
H 	 4.708313 	 1.446263 	 5.635912 
H 	 6.239640 	 -6.155535 	 1.011495 
H 	 -7.241359 	 -5.638630 	 1.269368 
H 	 -1.736802 	 -1.917430 	 3.931234 
H 	 -0.418661 	 -1.868223 	 4.522137 
H 	 -5.305447 	 -1.012086 	 -2.042639 
H 	 -4.761024 	 0.375722 	 -1.465197 
H 	 -6.610756 	 -1.682799 	 4.574019 
H 	 -7.163837 	 -1.147104 	 5.866427 
H 	 -0.427747 	 1.660567 	 5.195173 
H 	 -0.728945 	 0.214905 	 4.856545 
H 	 2.776220 	 4.225223 	 -5.357521 
H 	 4.179743 	 4.379406 	 -6.046556 
H 	 -5.257744 	 3.338915 	 -1.644759 
H 	 -4.041125 	 3.530701 	 -2.601455 
H 	 -1.360703 	 -2.022038 	 -7.232177 
H 	 -0.568295 	 -3.119723 	 6.854340 
H 	 6.829586 	 -1.265249 	 -5.362286 
H 	 7.042604 	 -0.465213 	 -4.096855 
H 	 3.195551 	 2.059956 	 -4.745072 
H 	 4.708970 	 2.096111 	 -5.136295 
H 	 -3.699150 	 -2.525445 	 2.977086 
H 	 -3.787297 	 -2.187463 	 4.499323 
H 	 0.574465 	 1.588003 	 1.402362 
H 	 -0.334238 	 0.466832 	 1.729743 
H 	 4.558321 	 5.411179 	 -0.021889 
H 	 3.145657 	 5.984458 	 -0.525103 
H 	 -5.993015 	 -4.704552 	 -4.735599 
H 	 -6.380391 	 -4.808992 	 -6.267264 
H 	 3.251979 	 0.510502 	 -0.131383 
H 	 2.574906 	 1.680441 	 -0.758794 
H 	 5.853143 	 -3.522774 	 -2.573808 
H 	 4.522419 	 -4.368440 	 -2.367249 
H 	 -4.793074 	 -4.554809 	 -2.323286 
H 	 -4.967900 	 -6.069426 	 -1.858576 
H 	 -2.934779 	 -5.419348 	 6.999302 
H 	 -2.958727 	 -3.982579 	 6.567419 
H 	 -0.201710 	 0.430163 	 -3.919262 
H 	 0.726046 	 -0.820005 	 -3.963790 
H 	 -1.460661 	 5.482194 	 -5.970538 
H 	 -2.729163 	 5.575697 	 -5.092872 
H 	 1.460955 	 -5.510706 	 -3.502137 
H 	 2.173434 	 -5.246244 	 -2.167010 
H 	 -7.067113 	 3.702397 	 3.438399 
H 	 -5.435862 	 3.877627 	 3.325861 
H 	 2.984039 	 0.349558 	 -7.293545 
H 	 4.242069 	 -0.391240 	 7.059592 
H 	 0.281144 	 3.793946 	 -6.389302 
H 	 0.229861 	 2.611700 	 -7.447282 
H 	 -5.439191 	 1.141936 	 -4.755966 
H 	 -5.091248 	 0.360527 	 -6.185080 
H 	 -5.053823 	 3.564966 	 7.197486 
H 	 -5.841247 	 2.854203 	 -6.710537 
H 	 -5.205953 	 -5.469884 	 2.790570 
H 	 -5.882913 	 -6.632386 	 3.561074 
H 	 0.081344 	 -7.381389 	 -7.471177 
H 	 -1.212609 	 -6.590202 	 -7.407386 
H 	 4.264301 	 6.517166 	 -3.769906 
H 	 2.935877 	 6.117921 	 -3.178612 
H 	 -0.336321 	 3.157182 	 -0.032053 
H 	 1.116703 	 3.555169 	 -0.471764 
H 	 -2.671705 	 2.945124 	 3.335970 
H 	 -3.593100 	 2.084432 	 4.211359 
H 	 3.334617 	 -6.127861 	 -0.298709 
H 	 4.500428 	 -6.915217 	 -0.795608 
H 	 -0.833247 	 0.000765 	 -7.621129 
H 	 -0.351922 	 -0.211887 	 -6.143032 
H 	 4.533436 	 -1.561151 	 3.250974 
H 	 5.713443 	 -0.574354 	 3.321830 
H 	 1.155699 	 -3.850003 	 5.253512 
H 	 0.506212 	 -5.174608 	 4.829059 
H 	 -0.096152 	 -5.912201 	 -0.223213 
H 	 -0.957557 	 -6.386400 	 -1.430116 
H 	 1.730858 	 3.747764 	 5.624757 
H 	 2.169330 	 2.565503 	 4.694674 
H 	 -0.978214 	 6.159955 	 0.864686 
H 	 -0.791866 	 4.808697 	 1.568730 
H 	 7.158932 	 4.685903 	 -6.352882 
H 	 6.921739 	 5.316534 	 -5.071208 
H 	 -2.313610 	 -0.075358 	 -2.982355 
H 	 -2.438701 	 -0.476393 	 -1.457853 
H 	 2.223348 	 -1.698581 	 6.361244 
H 	 0.749205 	 -1.406508 	 6.725530 
H 	 6.538263 	 6.191403 	 1.542093 
H 	 5.310188 	 5.446047 	 2.212934 
H 	 -4.252508 	 2.423147 	 1.251102 
H 	 -5.487852 	 2.332728 	 0.406145 
H 	 -5.230850 	 -1.944001 	 7.250284 
H 	 -4.803582 	 -3.006630 	 -6.676243 
H 	 -4.393550 	 -0.376979 	 5.728449 
H 	 -3.141280 	 -0.726144 	 6.493126 
H 	 1.049534 	 -5.554603 	 1.469021 
H 	 2.254814 	 -6.374499 	 2.139011 
H 	 6.795853 	 -7.252927 	 -3.811226 
H 	 5.957414 	 7.481192 	 -5.073397 
H 	 1.116420 	 6.113564 	 -5.465627 
H 	 0.263647 	 5.311400 	 -4.451873 
H 	 5.844983 	 1.621323 	 -7.090867 
H 	 7.045266 	 1.580428 	 -6.022145 
H 	 -2.930665 	 0.455947 	 1.512071 
H 	 -1.842731 	 -0.276397 	 2.366374 
H 	 2.800272 	 7.408148 	 -5.991116 
H 	 2.355846 	 -6.127972 	 -6.606258 
H 	 -2.212760 	 -2.382248 	 -3.839985 
H 	 -2.835907 	 -1.454890 	 -5.023136 
H 	 -2.409249 	 3.052680 	 6.691546 
H 	 -2.783873 	 1.612829 	 6.391207 
H 	 -7.152776 	 -0.355112 	 -0.859858 
H 	 6.708869 	 -1.419648 	 -1.187760 
H 	 2.900679 	 -2.053133 	 0.054777 
H 	 4.062540 	 -1.937926 	 -0.960260 
H 	 4.524108 	 3.439576 	 1.670355 
H 	 4.787441 	 3.092707 	 3.106055 
H 	 -4.375722 	 6.172483 	 2.628124 
H 	 -2.929634 	 5.641859 	 2.690171 
H 	 4.584167 	 -4.525655 	 1.735902 
H 	 4.613796 	 -3.080237 	 1.377643 
H 	 5.043163 	 -1.110769 	 -3.339672 
H 	 4.180908 	 0.225612 	 -3.540227 
H 	 3.521526 	 -1.646325 	 -5.971893 
H 	 4.263349 	 -2.539050 	 -4.825371 
H 	 0.128625 	 7.351034 	 -3.842718 
H 	 0.051452 	 -6.572812 	 -5.041630 
H 	 6.941781 	 -7.302859 	 5.225513 
H 	 6.914690 	 6.968530 	 3.809103 
H 	 1.262598 	 5.102850 	 1.994847 
H 	 2.440139 	 4.586871 	 2.890797 
H 	 0.778288 	 6.951265 	 3.897832 
H 	 1.041121 	 -7.017931 	 5.164262 
H 	 -6.106558 	 4.953909 	 1.073371 
H 	 -5.109929 	 5.224834 	 -0.126461 
H 	 6.796479 	 2.016297 	 2.471924 
H 	 7.007831 	 2.094912 	 4.028040 
H 	 1.341668 	 7.063165 	 0.148400 
H 	 0.858294 	 6.764857 	 -1.140409 
H 	 -1.002462 	 -3.651889 	 2.429431 
H 	 -1.416869 	 -3.758149 	 0.934453 
H 	 -4.022955 	 6.971093 	 6.678966 
H 	 -3.877742 	 6.210414 	 5.310357 
H 	 -3.602559 	 6.970056 	 -0.180984 
H 	 -3.202465 	 5.547506 	 -0.699444 
H 	 -2.185306 	 -7.359581 	 -3.122622 
H 	 -3.034348 	 -6.249388 	 -2.475926 
H 	 -7.068592 	 -6.925946 	 -1.026675 
H 	 -6.656631 	 6.575631 	 -1.269300 
H 	 2.617307 	 0.272392 	 3.601950 
H 	 3.107132 	 1.511584 	 2.875785 
H 	 6.169102 	 5.308955 	 -2.102007 
H 	 5.206165 	 4.192866 	 -2.424652 
H 	 0.800758 	 -1.319221 	 0.705361 
H 	 0.564350 	 -2.799605 	 1.218526 
H 	 0.239547 	 3.242847 	 3.772513 
H 	 -0.777177 	 4.214964 	 4.569316 
H 	 1.801680 	 -1.566660 	 3.707928 
H 	 2.180395 	 -1.850443 	 2.272733 
H 	 -6.532043 	 -2.457174 	 -3.714231 
H 	 -4.911830 	 -2.415919 	 -3.696207 
H 	 5.807259 	 -2.304017 	 6.919547 
H 	 5.614641 	 -1.453412 	 5.567191 
H 	 -2.824362 	 -1.952303 	 0.689533 
H 	 -3.669568 	 -2.974051 	 0.026586 
H 	 -7.339402 	 1.888363 	 -3.012860 
H 	 -6.599396 	 0.584195 	 -2.705952 
H 	 -0.363074 	 5.338567 	 6.202459 
H 	 -1.898084 	 5.745827 	 6.238710 
H 	 -3.067467 	 2.142781 	 -5.747068 
H 	 -1.606136 	 2.227877 	 -5.465705 
H 	 -6.763136 	 0.799574 	 5.320487 
H 	 -6.519293 	 2.125156 	 6.241805 
H 	 0.093287 	 5.643803 	 -2.402971 
O 	 6.331557 	 -7.089680 	 7.259892 
O 	 3.890381 	 -6.489786 	 3.336301 
O 	 1.731967 	 5.370354 	 6.560055 
O 	 -0.954694 	 -3.142143 	 -2.216172 
O 	 0.625100 	 0.193377 	 -1.453778 
O 	 3.874383 	 -4.288126 	 4.996883 
O 	 -6.953408 	 -3.808103 	 3.570271 
O 	 -6.762894 	 -4.521618 	 6.717536 
O 	 -6.468821 	 -0.303907 	 2.074500 
O 	 -3.174200 	 -6.497130 	 1.192156 
O 	 4.184507 	 6.376209 	 5.909481 
O 	 6.407231 	 4.470715 	 5.542677 
O 	 -5.406978 	 7.244680 	 -6.993978 
O 	 -2.550873 	 4.652114 	 -3.198437 
O 	 -1.009952 	 -3.945749 	 -4.864648 
O 	 -6.018261 	 5.667539 	 -4.403440 
O 	 -2.647120 	 -5.956951 	 -6.111003 
O 	 5.428505 	 -4.222538 	 -7.587929 
O 	 -1.756233 	 2.845701 	 -1.064586 
O 	 6.157366 	 2.733261 	 0.361362 
O 	 6.778646 	 -3.394376 	 -1.133516 
O 	 1.964803 	 -1.840882 	 -3.099161 
O 	 2.441510 	 3.627833 	 -2.196272 
O 	 -5.022744 	 -2.786265 	 1.527152 
O 	 1.474799 	 -4.182235 	 -6.540923 
O 	 4.675999 	 2.262323 	 6.196168 
O 	 7.040785 	 -5.945486 	 0.568893 
O 	 -0.889076 	 -1.468678 	 3.768879 
O 	 -5.274361 	 -0.401708 	 -1.278403 
O 	 -6.347997 	 -1.106318 	 5.312012 
O 	 -0.331025 	 0.774691 	 5.572068 
O 	 3.223861 	 4.193967 	 -6.216964 
O 	 -4.869043 	 3.010431 	 -2.469136 
O 	 -1.456507 	 -2.760247 	 7.027417 
O 	 6.921962 	 -1.415288 	 -4.405590 
O 	 4.077803 	 1.986749 	 -4.398570 
O 	 -3.408716 	 -2.867081 	 3.887832 
O 	 0.497371 	 0.851574 	 2.037726 
O 	 3.942810 	 5.501849 	 -0.786201 
O 	 -5.924148 	 -5.280410 	 -5.520988 
O 	 3.407603 	 1.475908 	 -0.253113 
O 	 4.991742 	 -3.801457 	 -3.025378 
O 	 -4.612755 	 -5.187107 	 -1.570326 
O 	 -3.370850 	 -4.832769 	 6.341426 
O 	 0.486068 	 -0.024974 	 -4.468500 
O 	 -2.381568 	 5.774426 	 -5.972931 
O 	 1.528497 	 -4.843941 	 -2.764114 
O 	 -6.318371 	 3.964606 	 2.884288 
O 	 3.273887 	 -0.272570 	 6.926729 
O 	 -0.152273 	 2.927009 	 -6.584419 
O 	 -5.177994 	 1.214394 	 -5.717601 
O 	 -5.998627 	 3.471203 	 -7.473977 
O 	 -5.178776 	 -6.441299 	 2.884691 
O 	 -0.507788 	 -6.848907 	 6.870364 
O 	 3.379582 	 6.187062 	 -4.031086 
O 	 0.505884 	 3.558119 	 0.281568 
O 	 -3.405003 	 2.273691 	 3.270261 
O 	 4.241872 	 -5.984579 	 -0.666365 
O 	 -1.129605 	 -0.280459 	 -6.730207 
O 	 5.344554 	 -1.363971 	 3.747556 
O 	 0.290793 	 -4.246472 	 5.018760 
O 	 -0.834868 	 -6.512960 	 -0.451022 
O 	 1.597712 	 2.788641 	 5.444849 
O 	 -1.157978 	 5.701495 	 1.720041 
O 	 6.452039 	 4.730121 	 -5.693645 
O 	 -2.185996 	 0.248172 	 -2.073805 
O 	 1.307372 	 -2.014736 	 6.217380 
O 	 5.705911 	 6.337895 	 2.036374 
O 	 -4.761896 	 1.768155 	 0.741806 
O 	 -4.809029 	 -2.048494 	 -6.790929 
O 	 -3.439646 	 -0.176922 	 5.764955 
O 	 1.969576 	 -5.875368 	 1.327668 
O 	 5.950586 	 7.250922 	 -4.148757 
O 	 0.430034 	 5.407311 	 -5.431418 
O 	 6.106698 	 1.345007 	 -6.168564 
O 	 -2.341872 	 -0.318841 	 1.511453 
O 	 2.989503 	 -6.874523 	 -6.730655 
O 	 -2.990992 	 -1.831839 	 -4.140402 
O 	 -3.216309 	 2.484192 	 6.584745 
O 	 6.790481 	 -0.609415 	 -0.639434 
O 	 3.885105 	 -1.846789 	 -0.007182 
O 	 4.407912 	 3.827946 	 2.576470 
O 	 -3.796871 	 5.611486 	 3.159592 
O 	 5.170234 	 -3.762536 	 1.791863 
O 	 4.135353 	 -0.751387 	 -3.317629 
O 	 3.706217 	 -2.519741 	 -5.624418 
O 	 0.648492 	 -6.880720 	 -4.335026 
O 	 7.234756 	 -7.160306 	 4.299200 
O 	 1.742680 	 5.296286 	 2.833521 
O 	 0.865900 	 -7.018986 	 4.200146 
O 	 -5.983502 	 4.880497 	 0.111122 
O 	 6.319220 	 1.990687 	 3.328588 
O 	 1.669914 	 6.657799 	 -0.653570 
O 	 -0.825300 	 -4.151485 	 1.626370 
O 	 -3.453259 	 6.895211 	 5.871513 
O 	 -3.811088 	 6.290813 	 -0.889938 
O 	 -2.328248 	 -6.373640 	 -3.083589 
O 	 -6.742180 	 7.391171 	 -1.768220 
O 	 3.092489 	 1.131559 	 3.774037 
O 	 6.094975 	 4.332934 	 -2.063296 
O 	 1.219698 	 -2.216198 	 0.804338 
O 	 -0.698594 	 3.536597 	 3.879200 
O 	 2.579360 	 -1.624826 	 3.132780 
O 	 -5.726756 	 -2.765628 	 -3.255765 
O 	 5.899956 	 -1.433105 	 6.504072 
O 	 -2.713534 	 -2.659537 	 0.009216 
O 	 -7.047909 	 1.077870 	 -3.426892 
O 	 -1.283147 	 4.997864 	 6.086491 
O 	 -2.444337 	 2.246960 	 -4.962484 
O 	 -6.618914 	 1.786059 	 5.306490 
O 	 -0.530508 	 6.027011 	 -3.043784 
K 	 -2.153042 	 -5.971646 	 4.008818 
