333
conformation = 12
H 	 -2.555299 	 4.221640 	 -5.208346 
H 	 -3.327094 	 5.593862 	 -5.380343 
H 	 -6.359216 	 3.684123 	 6.668570 
H 	 -5.805225 	 3.663646 	 5.255577 
H 	 5.681722 	 2.254214 	 -6.024494 
H 	 7.230264 	 2.314826 	 -6.162568 
H 	 4.114906 	 -6.219392 	 0.206706 
H 	 2.710716 	 -6.223030 	 0.993232 
H 	 3.735447 	 -3.010803 	 1.706489 
H 	 4.323215 	 -4.351503 	 1.272514 
H 	 -6.816694 	 6.364104 	 6.536353 
H 	 -7.447976 	 -7.406386 	 -7.478363 
H 	 -3.550125 	 -7.210409 	 5.629909 
H 	 -3.056202 	 6.424571 	 6.363297 
H 	 -0.624153 	 6.849840 	 -6.056306 
H 	 -1.991222 	 -7.217416 	 -6.385767 
H 	 -0.806195 	 -3.403732 	 4.290638 
H 	 -2.208132 	 -3.891901 	 3.852149 
H 	 0.896945 	 5.280201 	 2.885059 
H 	 2.321333 	 5.322347 	 3.213403 
H 	 -5.016257 	 2.596574 	 -6.755848 
H 	 -5.691718 	 3.942243 	 -6.086573 
H 	 -3.019878 	 1.193822 	 7.030822 
H 	 -4.122284 	 0.820851 	 -6.782715 
H 	 -0.787324 	 3.880077 	 -3.941845 
H 	 -1.074481 	 2.420732 	 -4.384208 
H 	 3.026298 	 1.316563 	 -0.829838 
H 	 1.689646 	 0.565548 	 -1.531063 
H 	 4.733707 	 7.457640 	 -1.701069 
H 	 4.690031 	 7.404753 	 -3.254042 
H 	 -1.026892 	 2.437995 	 -1.675038 
H 	 -0.841827 	 0.911766 	 -1.345517 
H 	 2.016577 	 4.707098 	 -3.698298 
H 	 2.552153 	 6.049309 	 -3.170792 
H 	 -5.416612 	 6.996724 	 -4.785701 
H 	 -5.339528 	 7.028263 	 -6.284112 
H 	 2.774916 	 -0.030973 	 1.141634 
H 	 2.868282 	 -1.240292 	 0.270626 
H 	 -4.026636 	 -0.909852 	 1.530236 
H 	 -4.540941 	 -2.101368 	 2.412733 
H 	 -1.965635 	 -6.932623 	 0.316261 
H 	 -3.116866 	 7.097990 	 0.906350 
H 	 6.663631 	 -5.060917 	 -0.368834 
H 	 6.596386 	 -6.603504 	 -0.390585 
H 	 -7.070778 	 0.212886 	 -0.270946 
H 	 7.285416 	 0.607191 	 1.129834 
H 	 -1.514837 	 -7.128396 	 3.968658 
H 	 -1.128783 	 -5.548040 	 4.116656 
H 	 6.679196 	 7.022887 	 -4.262525 
H 	 5.901121 	 -6.872451 	 -5.177471 
H 	 -6.052514 	 -0.196913 	 -6.127449 
H 	 -5.686964 	 -1.077767 	 -7.251010 
H 	 -3.336802 	 6.166091 	 3.986176 
H 	 -2.338245 	 5.120464 	 4.441148 
H 	 3.024628 	 -5.641651 	 6.841656 
H 	 4.345590 	 -5.710714 	 -7.304907 
H 	 -1.458758 	 -4.742946 	 0.558210 
H 	 -0.604992 	 -3.648182 	 1.161459 
H 	 -2.514335 	 -5.393110 	 7.152146 
H 	 -2.810531 	 -5.054344 	 -6.306617 
H 	 4.516565 	 -2.082906 	 -6.789429 
H 	 3.606244 	 -3.236434 	 -7.417524 
H 	 -7.160414 	 1.049988 	 -3.486995 
H 	 -5.720321 	 1.074261 	 -4.009064 
H 	 -1.337456 	 0.545803 	 0.521171 
H 	 0.105961 	 0.050212 	 0.367598 
H 	 2.920851 	 -5.732611 	 -5.415705 
H 	 2.847890 	 -6.759453 	 -4.320252 
H 	 -3.664614 	 -5.437886 	 -2.944349 
H 	 -3.513628 	 -4.560607 	 -1.675479 
H 	 -6.577782 	 -0.981800 	 -2.744540 
H 	 -5.412743 	 -1.960019 	 -2.343539 
H 	 0.024964 	 -5.941852 	 6.056977 
H 	 0.823067 	 -5.271673 	 7.156238 
H 	 5.087184 	 -2.042601 	 4.430944 
H 	 3.969521 	 -3.089170 	 4.735470 
H 	 -5.977423 	 2.806042 	 2.675967 
H 	 -7.411210 	 2.853748 	 2.029279 
H 	 -0.990540 	 6.916244 	 -1.760694 
H 	 -0.950465 	 6.220173 	 -3.162475 
H 	 -6.628349 	 -3.430960 	 2.800805 
H 	 -7.358706 	 -2.494034 	 1.869005 
H 	 -5.286659 	 7.206790 	 -1.784317 
H 	 -5.361390 	 6.301582 	 -0.525096 
H 	 -0.989660 	 6.676624 	 1.349769 
H 	 -0.580795 	 5.150284 	 1.403840 
H 	 1.556670 	 7.138210 	 -6.120933 
H 	 0.892894 	 7.174098 	 -7.478265 
H 	 5.730748 	 -2.729529 	 -2.005116 
H 	 4.932132 	 -3.942585 	 -1.535998 
H 	 2.984042 	 3.001897 	 -3.673751 
H 	 1.853976 	 2.334888 	 -2.895775 
H 	 6.084074 	 5.590417 	 -0.116426 
H 	 7.375181 	 6.269650 	 -0.467160 
H 	 -1.716979 	 0.874607 	 4.629380 
H 	 -0.677255 	 1.001223 	 5.696201 
H 	 -7.159693 	 -2.785134 	 -5.144663 
H 	 -6.176332 	 -4.070822 	 -5.228497 
H 	 4.946341 	 0.405838 	 -3.989916 
H 	 5.150352 	 -0.953518 	 -4.738786 
H 	 -1.376015 	 -2.436815 	 -1.996527 
H 	 -0.911739 	 -2.687896 	 -3.528654 
H 	 -0.572959 	 0.014815 	 -5.431878 
H 	 -1.437260 	 -0.583656 	 -4.253005 
H 	 -0.530948 	 5.874046 	 5.643558 
H 	 -1.298522 	 4.819962 	 6.445822 
H 	 4.055334 	 3.572710 	 -5.816845 
H 	 4.091430 	 4.793329 	 -4.859764 
H 	 -6.647705 	 3.205541 	 -1.147365 
H 	 7.052231 	 2.438930 	 -0.656131 
H 	 4.406098 	 -0.125433 	 2.873615 
H 	 5.684166 	 -0.964262 	 2.643996 
H 	 1.724780 	 -1.039285 	 6.325064 
H 	 0.147413 	 -1.123710 	 6.262883 
H 	 -6.736645 	 5.486021 	 1.860439 
H 	 -5.458047 	 4.663568 	 1.511183 
H 	 3.350321 	 -3.450949 	 -4.956546 
H 	 3.931410 	 -3.641333 	 -3.573755 
H 	 -5.980222 	 -4.892903 	 6.512355 
H 	 -4.997137 	 -3.739378 	 6.320818 
H 	 5.172049 	 6.309668 	 -6.778892 
H 	 5.429363 	 5.972963 	 6.600162 
H 	 4.730514 	 6.098806 	 1.767686 
H 	 3.416659 	 5.439889 	 1.261886 
H 	 6.300456 	 -0.232583 	 -6.638972 
H 	 6.990601 	 -1.378780 	 -7.323143 
H 	 3.235937 	 2.167808 	 3.571161 
H 	 3.645304 	 1.506196 	 4.934241 
H 	 -3.024029 	 1.525292 	 -3.226096 
H 	 -3.861741 	 2.643462 	 -3.880647 
H 	 1.650060 	 -4.047693 	 -0.106674 
H 	 1.653120 	 -4.494169 	 1.350843 
H 	 6.370470 	 -4.560391 	 -5.397459 
H 	 4.814115 	 -4.797389 	 -5.302298 
H 	 -3.809975 	 3.023188 	 3.938581 
H 	 -4.809691 	 1.855625 	 4.349792 
H 	 0.589090 	 -1.446702 	 4.162047 
H 	 1.032242 	 -1.229701 	 2.640152 
H 	 -0.774200 	 -6.247157 	 -4.903123 
H 	 0.211268 	 -5.466534 	 -4.069536 
H 	 0.718197 	 -3.192439 	 -7.389576 
H 	 0.064346 	 -3.909349 	 -6.137899 
H 	 5.499631 	 5.865714 	 4.108663 
H 	 6.815681 	 4.896410 	 4.324945 
H 	 -4.033620 	 3.800128 	 -0.665233 
H 	 -3.436086 	 4.670947 	 -1.776208 
H 	 5.450967 	 2.826729 	 -3.003305 
H 	 4.752994 	 1.853564 	 -2.141517 
H 	 -4.544070 	 -2.483700 	 -4.712335 
H 	 -3.917651 	 -1.139801 	 -4.664215 
H 	 1.537395 	 -3.255811 	 4.009014 
H 	 1.690372 	 -4.290091 	 5.216356 
H 	 -7.130627 	 4.169022 	 -3.753715 
H 	 6.800842 	 4.655308 	 -4.812195 
H 	 2.536659 	 -5.759309 	 -1.925003 
H 	 1.918794 	 -4.616840 	 -2.900201 
H 	 2.054294 	 0.085901 	 -6.008974 
H 	 1.734303 	 -1.327950 	 -6.059132 
H 	 -3.091679 	 -4.095983 	 2.123008 
H 	 -4.423821 	 -4.789142 	 2.648892 
H 	 7.409508 	 -5.853097 	 2.803523 
H 	 -6.769359 	 -5.452585 	 1.567624 
H 	 -5.311832 	 -0.004175 	 3.619205 
H 	 -4.774478 	 -0.233793 	 5.087946 
H 	 0.337707 	 2.987536 	 5.260716 
H 	 1.550661 	 2.087777 	 5.039156 
H 	 -5.244586 	 6.197906 	 4.618182 
H 	 -5.876888 	 7.273354 	 3.750771 
H 	 -5.738939 	 -4.542110 	 -0.465907 
H 	 -6.572552 	 -3.309951 	 -0.923202 
H 	 7.136514 	 -5.858658 	 -3.415712 
H 	 -6.237367 	 -5.606294 	 -3.283332 
H 	 5.147843 	 3.902878 	 -1.032244 
H 	 4.037370 	 4.909836 	 -1.217462 
H 	 -3.849275 	 4.430834 	 -7.198451 
H 	 -4.249773 	 4.438724 	 6.185175 
H 	 6.228571 	 1.193566 	 4.395766 
H 	 -7.434273 	 0.894698 	 5.182243 
H 	 5.262791 	 3.392389 	 5.507498 
H 	 5.768478 	 3.216263 	 6.973497 
H 	 -2.302260 	 0.597762 	 2.430510 
H 	 -1.109529 	 1.588261 	 2.403170 
H 	 -3.887535 	 -2.430862 	 4.765409 
H 	 -2.729568 	 -2.143756 	 5.805790 
H 	 5.235971 	 3.801874 	 2.115708 
H 	 4.976184 	 2.646831 	 1.076188 
H 	 3.717085 	 -7.003060 	 5.520281 
H 	 3.019952 	 7.426859 	 4.175641 
H 	 0.468570 	 3.271842 	 -6.075723 
H 	 0.859984 	 2.202636 	 -7.227333 
H 	 1.389594 	 3.120622 	 2.609521 
H 	 1.557252 	 2.089855 	 1.395734 
H 	 1.951819 	 3.979454 	 -0.352723 
H 	 1.604526 	 5.502713 	 -0.248340 
H 	 -3.083101 	 4.668047 	 2.167797 
H 	 -3.461461 	 3.288047 	 1.478288 
H 	 7.257497 	 -3.014159 	 5.701044 
H 	 -7.068301 	 -1.856736 	 4.896990 
H 	 -4.559576 	 0.845958 	 -0.091174 
H 	 -3.371408 	 0.747870 	 -1.095705 
H 	 5.136693 	 -4.764961 	 3.362982 
H 	 4.952733 	 -6.222285 	 3.834484 
H 	 4.135788 	 -0.912553 	 5.686381 
H 	 3.572750 	 0.043448 	 6.793419 
H 	 6.225925 	 -5.720900 	 6.811159 
H 	 6.682736 	 -5.631766 	 5.405616 
H 	 -1.590844 	 -5.875722 	 -1.501408 
H 	 -0.019900 	 -5.758188 	 -1.363479 
H 	 -4.693441 	 -5.948636 	 -5.358736 
H 	 -4.674328 	 -4.861295 	 -6.562700 
H 	 1.574421 	 -5.353743 	 3.516296 
H 	 0.625416 	 -6.378719 	 2.893043 
H 	 -3.405159 	 -2.056520 	 -0.929639 
H 	 -2.539346 	 -2.887157 	 0.122602 
H 	 3.620446 	 1.165086 	 -5.279325 
H 	 2.457722 	 2.122363 	 -5.870422 
H 	 1.381556 	 -1.639782 	 -2.303745 
H 	 2.905724 	 -1.175979 	 -2.388324 
H 	 -1.611969 	 -3.225174 	 -7.391180 
H 	 -1.804155 	 -1.696345 	 -7.071130 
H 	 4.875470 	 0.933473 	 -0.060802 
O 	 -3.467395 	 4.626019 	 -5.388413 
O 	 -6.269143 	 4.277951 	 5.874040 
O 	 6.442352 	 1.954366 	 -6.582182 
O 	 3.174158 	 -6.433644 	 0.148367 
O 	 4.571481 	 -3.511326 	 1.698071 
O 	 -6.636439 	 6.972729 	 7.251940 
O 	 -2.883735 	 7.398076 	 6.283214 
O 	 -1.557641 	 7.097791 	 -5.736490 
O 	 -1.556107 	 -3.949859 	 4.589955 
O 	 1.494953 	 4.935305 	 3.578094 
O 	 -5.832826 	 3.177391 	 -6.686575 
O 	 -3.879494 	 1.468941 	 -7.464071 
O 	 -1.074491 	 3.365906 	 -4.701658 
O 	 1.938669 	 1.267490 	 -0.874643 
O 	 4.143426 	 -7.373202 	 -2.468027 
O 	 -0.964383 	 1.573404 	 -2.074994 
O 	 2.311506 	 5.574987 	 -3.988628 
O 	 -4.775451 	 7.181580 	 -5.479558 
O 	 2.855134 	 -0.993874 	 1.212288 
O 	 -4.002130 	 -1.277991 	 2.439595 
O 	 -2.297400 	 -7.305432 	 1.150146 
O 	 6.047602 	 -5.803873 	 -0.241657 
O 	 7.186629 	 -0.055649 	 0.411045 
O 	 -0.800233 	 -6.506850 	 4.117724 
O 	 5.834090 	 7.138086 	 -4.720483 
O 	 -5.366526 	 -0.825474 	 -6.376137 
O 	 -2.835329 	 5.427285 	 3.657648 
O 	 3.936954 	 -5.317377 	 6.808960 
O 	 -1.524473 	 -3.979756 	 1.129592 
O 	 -2.082868 	 -4.981066 	 -6.982409 
O 	 3.640206 	 -2.532291 	 -6.737310 
O 	 -6.549010 	 0.524835 	 -4.003237 
O 	 -0.797350 	 -0.171566 	 0.131532 
O 	 2.359729 	 -6.450875 	 -5.107705 
O 	 -3.611084 	 -5.502607 	 -1.965252 
O 	 -6.126804 	 -1.393223 	 -1.960492 
O 	 0.940263 	 -5.923787 	 6.376824 
O 	 4.819315 	 -2.734141 	 5.093766 
O 	 -6.481630 	 2.615532 	 1.854997 
O 	 -1.387497 	 6.189693 	 -2.299622 
O 	 -6.933713 	 -2.478637 	 2.737497 
O 	 -5.697496 	 7.109044 	 -0.932906 
O 	 -0.194476 	 6.038549 	 1.320228 
O 	 0.966973 	 6.567148 	 -6.680769 
O 	 5.316434 	 -3.543681 	 -2.319040 
O 	 2.024807 	 2.945923 	 -3.648264 
O 	 6.663386 	 6.309929 	 0.232721 
O 	 -1.639844 	 0.911544 	 5.613080 
O 	 -7.071963 	 -3.743660 	 -4.954646 
O 	 4.478970 	 -0.387572 	 -4.330564 
O 	 -0.795611 	 -2.159814 	 -2.735323 
O 	 -1.476498 	 -0.003042 	 -5.058841 
O 	 -0.630298 	 4.907721 	 5.762258 
O 	 4.577641 	 4.362889 	 -5.619839 
O 	 -7.435233 	 2.754422 	 -1.486552 
O 	 5.252715 	 -0.342568 	 3.281096 
O 	 0.979957 	 -1.514436 	 5.960175 
O 	 -5.767785 	 5.581236 	 1.713614 
O 	 3.224875 	 -4.012029 	 -4.160084 
O 	 -5.027094 	 -4.680489 	 6.598099 
O 	 4.986017 	 6.590568 	 7.206212 
O 	 3.893486 	 5.692118 	 2.061017 
O 	 6.275270 	 -1.217214 	 -6.645807 
O 	 3.506966 	 2.363696 	 4.488967 
O 	 -3.858577 	 1.652925 	 -3.734847 
O 	 1.544843 	 -3.708737 	 0.802865 
O 	 5.632331 	 -5.142602 	 -5.719796 
O 	 -4.766610 	 2.769574 	 4.010330 
O 	 0.459888 	 -1.773709 	 3.218032 
O 	 -0.678617 	 -5.359420 	 -4.505525 
O 	 0.826646 	 -3.932693 	 -6.729844 
O 	 6.243429 	 5.392318 	 3.678500 
O 	 -4.159250 	 3.976339 	 -1.617402 
O 	 4.881789 	 2.056196 	 -3.106965 
O 	 -4.101147 	 -1.913100 	 -4.092118 
O 	 2.070396 	 -3.993226 	 4.357404 
O 	 -7.203898 	 4.865333 	 -4.447239 
O 	 1.733174 	 -5.261266 	 -2.169211 
O 	 1.272852 	 -0.471252 	 -6.136156 
O 	 -3.780995 	 -4.111700 	 2.823556 
O 	 -6.582556 	 -5.532108 	 2.521103 
O 	 -5.534255 	 0.117039 	 4.567184 
O 	 0.656044 	 2.080470 	 5.421555 
O 	 -5.278248 	 7.161502 	 4.508358 
O 	 -6.551775 	 -4.026142 	 -0.273461 
O 	 -6.888670 	 -6.301712 	 -3.503634 
O 	 4.966807 	 4.754854 	 -1.502408 
O 	 -3.511868 	 4.615470 	 6.785955 
O 	 6.705111 	 1.484615 	 5.197199 
O 	 5.282823 	 3.810191 	 6.383941 
O 	 -2.055279 	 1.521517 	 2.610135 
O 	 -3.720488 	 -2.096053 	 5.660054 
O 	 5.470222 	 2.857532 	 1.909681 
O 	 3.746290 	 7.237227 	 4.796893 
O 	 1.061288 	 3.064163 	 -6.831294 
O 	 1.321423 	 2.160603 	 2.339123 
O 	 2.342067 	 4.846696 	 -0.398456 
O 	 -3.155127 	 4.213337 	 1.252020 
O 	 -7.109786 	 -2.206349 	 5.792047 
O 	 -3.608364 	 0.649006 	 -0.158716 
O 	 5.428918 	 -5.670234 	 3.195376 
O 	 3.504728 	 -0.174612 	 5.863868 
O 	 6.978006 	 -5.403740 	 6.298550 
O 	 -0.832017 	 -6.120901 	 -0.952354 
O 	 -4.695846 	 -4.962183 	 -5.543910 
O 	 1.524701 	 -6.036707 	 2.795596 
O 	 -2.898062 	 -2.897362 	 -0.810128 
O 	 3.254520 	 1.557355 	 -6.098491 
O 	 2.237303 	 -1.680360 	 -1.865215 
O 	 -1.278062 	 -2.302778 	 7.306497 
O 	 4.386366 	 1.691468 	 -0.470820 
K 	 2.559457 	 4.948759 	 6.480768 
