333
conformation = 41
H 	 7.303861 	 3.823247 	 0.974018 
H 	 6.104092 	 4.784766 	 0.751889 
H 	 4.019027 	 3.841414 	 -2.433949 
H 	 4.921639 	 4.466094 	 -3.515867 
H 	 1.717586 	 1.274121 	 0.814022 
H 	 2.093723 	 2.200897 	 -0.462325 
H 	 -0.132201 	 7.210735 	 6.035268 
H 	 -1.201810 	 -6.879639 	 6.919559 
H 	 0.132996 	 -3.693396 	 6.120485 
H 	 1.495510 	 -4.324252 	 6.449017 
H 	 3.955158 	 6.218947 	 -2.035092 
H 	 3.646942 	 -7.192439 	 -2.433105 
H 	 6.702939 	 -7.350286 	 -3.538144 
H 	 -7.282865 	 -7.477744 	 -2.258351 
H 	 -5.842611 	 6.863180 	 -0.126060 
H 	 -7.373503 	 7.158333 	 0.229127 
H 	 -6.388536 	 -3.429961 	 -5.218339 
H 	 -7.330958 	 -4.730547 	 -5.272818 
H 	 -3.867965 	 4.987678 	 -6.054570 
H 	 -2.300043 	 4.705414 	 -6.064399 
H 	 4.676990 	 1.890819 	 -1.021245 
H 	 4.161079 	 3.096715 	 -0.198673 
H 	 6.520069 	 1.312555 	 -0.242853 
H 	 5.639927 	 -0.033732 	 -0.411521 
H 	 -5.190099 	 4.323821 	 1.717612 
H 	 -5.308744 	 2.855340 	 2.045655 
H 	 -1.750852 	 1.117817 	 5.130278 
H 	 -2.296903 	 -0.307570 	 4.735772 
H 	 -1.437377 	 7.209693 	 4.375070 
H 	 -0.569251 	 7.372317 	 3.029122 
H 	 -6.455486 	 2.394234 	 4.553132 
H 	 -5.562208 	 1.163704 	 4.360333 
H 	 -3.149075 	 4.019990 	 2.590183 
H 	 -2.490150 	 5.525351 	 2.723191 
H 	 4.744169 	 7.251423 	 1.396975 
H 	 4.770184 	 6.928998 	 -0.081998 
H 	 -2.554714 	 -0.287990 	 6.985045 
H 	 -1.899752 	 -1.781093 	 6.946271 
H 	 6.673420 	 -0.476772 	 -6.792741 
H 	 5.916764 	 -1.694506 	 -6.472464 
H 	 -7.395311 	 -7.499693 	 -7.574976 
H 	 6.308531 	 6.873147 	 -6.789574 
H 	 2.592854 	 -5.535026 	 5.188152 
H 	 1.544484 	 -6.630417 	 4.905145 
H 	 2.228756 	 -0.881048 	 5.354733 
H 	 2.977459 	 0.037290 	 6.300326 
H 	 -5.875249 	 -6.887737 	 -5.636234 
H 	 -5.460185 	 -5.597770 	 -4.981549 
H 	 2.367970 	 -7.259696 	 2.254468 
H 	 1.177482 	 -7.418100 	 1.270941 
H 	 4.044144 	 -1.517418 	 -0.008712 
H 	 4.533196 	 -1.578014 	 -1.470948 
H 	 6.222338 	 4.384257 	 -6.385858 
H 	 -7.236296 	 4.742978 	 -5.806041 
H 	 -1.554442 	 -5.635966 	 -2.210380 
H 	 -0.314543 	 -5.934164 	 -2.937488 
H 	 -4.508532 	 -4.573960 	 6.280647 
H 	 -4.994805 	 -3.579588 	 -7.402882 
H 	 -6.053954 	 -4.927405 	 -2.228694 
H 	 -7.056524 	 -4.755359 	 -1.085968 
H 	 0.657336 	 -2.877710 	 -1.377014 
H 	 -0.530594 	 -3.589723 	 -2.025917 
H 	 2.512536 	 0.374800 	 2.616972 
H 	 3.798020 	 0.587838 	 1.708207 
H 	 -5.477258 	 -0.328059 	 6.455462 
H 	 -4.113634 	 -0.400540 	 5.589082 
H 	 -1.070321 	 -5.909737 	 0.438268 
H 	 -0.852071 	 -7.131660 	 -0.531989 
H 	 6.966332 	 -5.086361 	 2.531907 
H 	 7.271843 	 -4.179927 	 3.679259 
H 	 3.261518 	 -1.930489 	 3.168961 
H 	 4.785728 	 -1.872628 	 3.503458 
H 	 -4.303696 	 -6.861834 	 -3.700366 
H 	 -3.867904 	 -6.551698 	 -2.239981 
H 	 0.755859 	 -1.962955 	 -5.349024 
H 	 -0.253145 	 -3.000741 	 -4.929839 
H 	 4.710620 	 1.198382 	 -6.853216 
H 	 3.341852 	 1.918150 	 -6.989979 
H 	 -6.030660 	 6.609858 	 3.157298 
H 	 -6.382329 	 6.322227 	 1.649590 
H 	 3.814171 	 -3.257331 	 -7.086791 
H 	 2.644335 	 -2.510319 	 -7.559620 
H 	 5.711421 	 -7.314214 	 5.519661 
H 	 4.535187 	 6.614766 	 5.145057 
H 	 -5.168957 	 6.607199 	 5.998301 
H 	 -5.484377 	 5.120195 	 6.265223 
H 	 -3.524319 	 5.405779 	 0.407064 
H 	 -2.823169 	 6.752531 	 0.117489 
H 	 0.622772 	 -2.844530 	 3.836502 
H 	 0.756681 	 -4.354225 	 4.033354 
H 	 -1.990505 	 1.670693 	 1.462084 
H 	 -2.860882 	 1.560645 	 2.836963 
H 	 1.333114 	 5.720550 	 4.774833 
H 	 2.038422 	 5.930364 	 6.217829 
H 	 -7.047793 	 -0.488205 	 -3.769459 
H 	 -5.909273 	 0.664120 	 -3.405206 
H 	 2.922037 	 -3.938608 	 1.252595 
H 	 4.040235 	 -4.551208 	 0.354525 
H 	 0.217914 	 -0.489477 	 2.172616 
H 	 0.149875 	 -0.921405 	 0.695107 
H 	 -5.857012 	 -2.767372 	 3.085371 
H 	 -4.890531 	 -3.738938 	 2.162087 
H 	 -5.605088 	 0.601912 	 0.293209 
H 	 -5.321592 	 -0.779273 	 0.799530 
H 	 -6.010881 	 5.596391 	 -3.325614 
H 	 -6.388075 	 4.126273 	 -3.651789 
H 	 -0.062956 	 3.764291 	 0.800896 
H 	 -1.415071 	 4.453842 	 0.723101 
H 	 4.264254 	 3.083478 	 4.480082 
H 	 3.134817 	 2.343464 	 5.194850 
H 	 -0.333747 	 -0.572320 	 -6.811300 
H 	 1.088247 	 -0.046470 	 -7.322488 
H 	 -2.500584 	 -1.450286 	 -3.667815 
H 	 -3.761861 	 -1.865882 	 -2.792199 
H 	 3.288033 	 5.123487 	 -6.862011 
H 	 3.514265 	 4.033435 	 7.099896 
H 	 -0.678360 	 -3.389379 	 1.016200 
H 	 -1.093328 	 -4.044202 	 2.289609 
H 	 4.719677 	 -5.489065 	 -3.415906 
H 	 5.576889 	 -4.247346 	 -3.198852 
H 	 0.883155 	 7.301812 	 -1.400457 
H 	 0.543843 	 5.937688 	 -1.963797 
H 	 -0.583427 	 5.519789 	 -7.166574 
H 	 -0.915827 	 4.456653 	 6.640840 
H 	 1.702220 	 -0.026241 	 -0.977128 
H 	 2.245813 	 -1.262716 	 -1.732973 
H 	 -1.019970 	 2.234867 	 -6.156170 
H 	 -0.975933 	 1.149359 	 -5.118874 
H 	 7.342244 	 0.863558 	 2.727836 
H 	 5.967217 	 1.098484 	 3.121027 
H 	 -1.953564 	 -3.818133 	 5.201953 
H 	 -1.930687 	 -4.192368 	 6.782050 
H 	 1.934265 	 -5.224964 	 -0.144882 
H 	 0.615315 	 -5.149642 	 -1.095428 
H 	 6.612601 	 1.924679 	 -4.419165 
H 	 5.063428 	 1.847840 	 -4.520381 
H 	 -4.487060 	 -1.581523 	 -5.168283 
H 	 -5.303113 	 -1.019075 	 -6.292688 
H 	 -5.206121 	 -5.499876 	 0.708227 
H 	 -3.869733 	 -6.078006 	 1.146565 
H 	 -4.204196 	 -3.985312 	 -0.261443 
H 	 -2.713064 	 -4.360310 	 -0.158312 
H 	 1.183030 	 6.194418 	 -5.164728 
H 	 2.189152 	 5.006120 	 -4.699137 
H 	 6.420929 	 3.956542 	 4.481760 
H 	 6.031563 	 3.849713 	 3.010010 
H 	 0.586103 	 2.211842 	 2.430345 
H 	 0.101845 	 1.585640 	 3.715246 
H 	 5.874772 	 -2.286239 	 1.348819 
H 	 6.773755 	 -2.087687 	 2.586534 
H 	 -2.983769 	 -3.280928 	 -5.541814 
H 	 -2.454654 	 -4.403185 	 -4.584032 
H 	 3.160683 	 3.954378 	 2.477043 
H 	 2.514774 	 4.882243 	 1.454183 
H 	 -2.240768 	 -6.085217 	 3.636688 
H 	 -3.519247 	 -5.177452 	 3.315769 
H 	 -2.605220 	 -0.668755 	 -0.383228 
H 	 -2.994341 	 -2.082073 	 -0.467791 
H 	 -7.390378 	 -4.541852 	 7.043911 
H 	 6.455344 	 -4.732312 	 -6.837275 
H 	 3.156748 	 -5.998833 	 -6.807277 
H 	 4.382813 	 -5.692794 	 7.183407 
H 	 4.092519 	 -0.347982 	 -4.838637 
H 	 4.688126 	 -0.201400 	 -3.493216 
H 	 -4.222726 	 2.734821 	 -3.942553 
H 	 -3.245284 	 1.571384 	 -3.847309 
H 	 4.291699 	 6.947362 	 -4.714761 
H 	 4.882276 	 -6.887172 	 -5.653494 
H 	 5.243382 	 -4.271953 	 5.291307 
H 	 4.047299 	 -3.391642 	 4.785461 
H 	 3.609901 	 -5.482764 	 3.202174 
H 	 4.217721 	 -6.895890 	 3.397527 
H 	 0.211292 	 3.737317 	 4.206595 
H 	 -0.256523 	 4.751117 	 3.250456 
H 	 7.156383 	 3.931985 	 -1.505792 
H 	 6.378417 	 3.036191 	 -2.532214 
H 	 1.399166 	 1.056116 	 -4.658607 
H 	 2.650885 	 1.113284 	 -3.774912 
H 	 1.161610 	 3.628515 	 -3.212301 
H 	 0.387633 	 3.271650 	 -1.898590 
H 	 -6.287471 	 0.685776 	 -5.613278 
H 	 -5.481614 	 1.380718 	 -6.857254 
H 	 6.448302 	 -2.273762 	 -4.021822 
H 	 6.774606 	 -1.740479 	 -2.627550 
H 	 0.907009 	 3.487009 	 -6.792552 
H 	 1.081431 	 2.807569 	 6.854828 
H 	 -0.643887 	 -7.379296 	 -4.524142 
H 	 -1.599139 	 -7.422404 	 -5.772882 
H 	 -4.031655 	 2.976311 	 0.071911 
H 	 -3.940868 	 2.540263 	 -1.441612 
H 	 -3.291351 	 3.084635 	 -7.220378 
H 	 -3.366260 	 2.264689 	 6.306826 
H 	 -2.472387 	 3.695425 	 5.059099 
H 	 -3.305488 	 5.022209 	 5.192176 
H 	 -7.031273 	 3.840430 	 7.059608 
H 	 -5.652740 	 3.404813 	 6.547354 
H 	 2.907527 	 -3.431395 	 -3.279467 
H 	 2.348277 	 -2.089622 	 -3.670983 
H 	 6.517538 	 1.242336 	 6.354333 
H 	 5.337262 	 0.683633 	 5.531559 
H 	 0.771171 	 -5.190536 	 -6.551596 
H 	 0.541044 	 -6.738601 	 -6.468165 
H 	 -0.134895 	 -0.860490 	 -2.643930 
H 	 -1.264756 	 0.191489 	 -2.466347 
H 	 2.161921 	 -5.554282 	 -2.641582 
H 	 2.047756 	 -5.396989 	 -4.219272 
H 	 -6.498262 	 -6.113040 	 4.318325 
H 	 -5.004523 	 -6.698654 	 4.529344 
H 	 5.898990 	 -6.235126 	 0.027432 
H 	 5.728085 	 -5.466748 	 -1.410985 
H 	 -2.690843 	 -5.617182 	 -6.218724 
H 	 -3.477062 	 -6.812176 	 -6.383059 
H 	 -7.175540 	 -1.429519 	 4.667026 
H 	 -6.265838 	 -2.515160 	 5.292519 
H 	 -0.576828 	 1.746535 	 -0.471141 
H 	 -2.147964 	 1.857194 	 -0.517528 
H 	 -3.348361 	 -1.878056 	 2.879395 
H 	 -2.157688 	 -1.276870 	 2.160493 
H 	 -6.160206 	 -2.570740 	 -1.270547 
H 	 -6.791722 	 -1.192947 	 -0.770837 
H 	 0.003052 	 1.826544 	 5.497820 
O 	 6.336060 	 3.865314 	 0.890559 
O 	 4.019608 	 4.545165 	 -3.126546 
O 	 1.384755 	 1.741237 	 -0.011867 
O 	 -0.863154 	 -7.048463 	 6.026910 
O 	 0.922526 	 -3.575622 	 6.712670 
O 	 3.710752 	 7.115012 	 -1.670680 
O 	 -7.266866 	 -7.418875 	 -3.245862 
O 	 -6.747575 	 6.489838 	 -0.150574 
O 	 -6.677545 	 -4.255603 	 -4.734259 
O 	 -3.158177 	 4.594709 	 -5.556682 
O 	 3.997124 	 2.582073 	 -1.021802 
O 	 6.152999 	 0.663001 	 -0.871260 
O 	 -5.463869 	 3.485135 	 1.268138 
O 	 -2.622625 	 0.581163 	 5.025765 
O 	 -1.392276 	 7.011960 	 3.395261 
O 	 -6.030376 	 1.877438 	 3.858418 
O 	 -2.747474 	 4.755383 	 2.140535 
O 	 5.336681 	 6.856266 	 0.748291 
O 	 -2.013840 	 -0.945406 	 -7.408065 
O 	 6.244245 	 -0.903774 	 -6.026417 
O 	 6.558179 	 -7.303604 	 -7.430054 
O 	 1.639617 	 -5.677027 	 5.111118 
O 	 2.077371 	 -0.187458 	 6.016247 
O 	 -5.037810 	 -6.480311 	 -5.304337 
O 	 1.633379 	 7.017582 	 1.966756 
O 	 4.853771 	 -1.635948 	 -0.542414 
O 	 7.065457 	 4.950588 	 -6.540484 
O 	 -1.082370 	 -5.317634 	 -3.033417 
O 	 -5.288407 	 -4.246305 	 6.789988 
O 	 -6.104379 	 -4.910011 	 -1.259209 
O 	 -0.269155 	 -3.141156 	 -1.202065 
O 	 2.932424 	 0.134752 	 1.747840 
O 	 -5.059739 	 -0.682034 	 5.627979 
O 	 -1.506542 	 -6.459390 	 -0.258479 
O 	 7.191269 	 -5.121998 	 3.483608 
O 	 3.917250 	 -1.969032 	 3.926220 
O 	 -3.543623 	 -6.968835 	 -3.050800 
O 	 0.716431 	 -2.868053 	 -4.960405 
O 	 4.153433 	 1.680019 	 -7.456527 
O 	 -6.236364 	 5.896274 	 2.521181 
O 	 3.405416 	 -2.370407 	 -6.977152 
O 	 4.839521 	 -7.367423 	 5.086898 
O 	 -4.796066 	 5.823247 	 6.411543 
O 	 -3.560250 	 6.184397 	 -0.186812 
O 	 0.274103 	 -3.667384 	 3.494256 
O 	 -2.709648 	 2.087669 	 2.014397 
O 	 1.335946 	 6.266728 	 5.618205 
O 	 -6.401556 	 0.171952 	 -4.074444 
O 	 3.121152 	 -4.245771 	 0.357625 
O 	 -0.102537 	 -1.218408 	 1.571733 
O 	 -5.155133 	 -2.835369 	 2.382307 
O 	 -6.017865 	 -0.093153 	 0.857248 
O 	 -5.627731 	 4.762251 	 -3.714098 
O 	 -0.626617 	 4.271214 	 0.182576 
O 	 3.438034 	 2.574962 	 4.287937 
O 	 0.480020 	 -0.120899 	 -6.537526 
O 	 -3.497041 	 -1.365689 	 -3.592886 
O 	 3.952834 	 4.859580 	 -7.521085 
O 	 -1.184667 	 -4.160915 	 1.334639 
O 	 5.618875 	 -5.228822 	 -3.100832 
O 	 0.204470 	 6.869852 	 -1.966505 
O 	 -0.628098 	 4.569292 	 -7.336268 
O 	 1.415968 	 -0.840636 	 -1.424779 
O 	 -1.220999 	 2.098702 	 -5.214086 
O 	 6.436200 	 0.546623 	 2.465616 
O 	 -1.775210 	 -3.500940 	 6.127580 
O 	 1.317548 	 -5.723786 	 -0.751633 
O 	 5.811845 	 2.483996 	 -4.578813 
O 	 -5.081619 	 -1.876631 	 -5.886325 
O 	 -4.731568 	 -5.767351 	 1.528387 
O 	 -3.459403 	 -4.265391 	 -0.825125 
O 	 1.701904 	 5.440302 	 -5.482109 
O 	 5.875154 	 3.454685 	 3.901297 
O 	 0.387310 	 1.334455 	 2.797799 
O 	 6.106837 	 -2.680780 	 2.209938 
O 	 -2.409053 	 -4.076166 	 -5.502870 
O 	 2.893256 	 3.996320 	 1.539356 
O 	 -2.953935 	 -5.540617 	 4.020655 
O 	 -3.308700 	 -1.255978 	 -0.056718 
O 	 6.742468 	 -4.093012 	 -7.506204 
O 	 3.868925 	 -5.357956 	 -6.942591 
O 	 3.996980 	 0.203565 	 -4.052087 
O 	 -4.097024 	 1.864604 	 -3.506342 
O 	 5.089169 	 -7.380754 	 -4.813229 
O 	 4.341156 	 -4.343851 	 4.904973 
O 	 3.691404 	 -6.365615 	 2.757507 
O 	 0.582485 	 4.325336 	 3.516124 
O 	 7.188955 	 3.591886 	 -2.421981 
O 	 1.770968 	 1.543453 	 -3.907800 
O 	 0.717271 	 4.023128 	 -2.423348 
O 	 -6.155781 	 0.721096 	 -6.599509 
O 	 6.061543 	 -1.763723 	 -3.302474 
O 	 1.660719 	 3.060910 	 -7.259035 
O 	 -0.960478 	 6.911798 	 -5.235571 
O 	 -3.474747 	 3.026028 	 -0.735153 
O 	 -3.883689 	 2.722558 	 6.986933 
O 	 -2.432839 	 4.642737 	 5.031798 
O 	 -6.562001 	 3.554805 	 6.211763 
O 	 2.855427 	 -2.518281 	 -2.945099 
O 	 6.204594 	 0.430697 	 5.923516 
O 	 1.178846 	 -6.009169 	 -6.196254 
O 	 -0.857455 	 -0.430389 	 -3.123966 
O 	 2.686578 	 -5.494180 	 -3.469724 
O 	 -5.942844 	 -6.799921 	 4.761223 
O 	 5.895359 	 -5.363162 	 -0.434530 
O 	 -2.587659 	 -6.499522 	 -6.667377 
O 	 -6.990047 	 -2.400821 	 4.660280 
O 	 -1.398264 	 1.237788 	 -0.496311 
O 	 -2.541309 	 -1.381875 	 3.072675 
O 	 -6.971269 	 -2.025375 	 -1.335718 
O 	 -0.747965 	 2.408653 	 5.224628 
K 	 -2.324639 	 5.256089 	 -2.698518 
