333
conformation = 47
H 	 -7.489728 	 -7.572900 	 -7.330661 
H 	 6.117531 	 -6.877124 	 7.496113 
H 	 3.877612 	 7.207256 	 3.939545 
H 	 4.969983 	 -7.241914 	 2.980746 
H 	 1.907669 	 4.931824 	 6.726133 
H 	 1.654421 	 5.902109 	 5.691306 
H 	 -0.434279 	 -4.572440 	 -2.165403 
H 	 -1.783774 	 -3.816835 	 -2.320582 
H 	 0.455528 	 0.347192 	 -1.550117 
H 	 0.945617 	 -0.840236 	 -2.392956 
H 	 3.615138 	 -5.160687 	 4.147946 
H 	 3.653649 	 -3.637031 	 4.064570 
H 	 6.632749 	 -3.911397 	 2.663363 
H 	 7.387309 	 -4.211120 	 3.990020 
H 	 -5.738441 	 -4.868925 	 5.813523 
H 	 -7.069802 	 -4.384858 	 6.416488 
H 	 -6.882008 	 -0.337716 	 0.768632 
H 	 7.247625 	 -0.960210 	 1.905839 
H 	 -3.569362 	 -6.281362 	 0.181834 
H 	 -2.234923 	 -7.030173 	 0.249134 
H 	 4.544238 	 5.313724 	 5.060764 
H 	 4.028990 	 6.333657 	 6.042619 
H 	 6.474583 	 4.552454 	 6.521918 
H 	 5.867018 	 3.401602 	 5.788170 
H 	 -5.549279 	 -7.237916 	 -6.776732 
H 	 -5.621791 	 6.170075 	 -6.462241 
H 	 -1.770170 	 4.842874 	 -3.398084 
H 	 -2.507512 	 3.421961 	 -4.346105 
H 	 -1.232127 	 -4.481213 	 -4.283318 
H 	 -0.740235 	 -4.552206 	 -5.698325 
H 	 -6.370019 	 5.703748 	 -4.044728 
H 	 -5.730970 	 4.310494 	 -4.325303 
H 	 -2.740561 	 7.039999 	 -6.328223 
H 	 -2.694874 	 -6.636238 	 -5.447445 
H 	 4.810360 	 -4.274361 	 -7.034129 
H 	 4.673360 	 -4.777191 	 6.366973 
H 	 -2.219061 	 3.072570 	 -1.554982 
H 	 -2.158373 	 1.624514 	 -1.278914 
H 	 6.785544 	 2.787181 	 -0.401963 
H 	 5.676355 	 1.813332 	 0.132416 
H 	 6.845194 	 -3.970190 	 -1.716335 
H 	 6.968869 	 -4.861888 	 -0.492043 
H 	 2.409628 	 -2.745309 	 -3.799670 
H 	 1.463146 	 -2.939897 	 -2.720087 
H 	 2.015415 	 2.283251 	 -2.739528 
H 	 2.689276 	 3.536586 	 -2.147772 
H 	 -5.609240 	 -3.954786 	 0.961062 
H 	 -5.937839 	 -2.419631 	 0.757142 
H 	 2.092806 	 -3.835212 	 -5.854703 
H 	 1.611116 	 -3.998331 	 -7.269146 
H 	 4.115237 	 1.243335 	 6.407838 
H 	 4.715898 	 1.124306 	 5.020976 
H 	 6.164622 	 -7.188242 	 -0.394920 
H 	 7.329675 	 -6.985379 	 0.621300 
H 	 -1.958984 	 -2.181711 	 3.717580 
H 	 -0.389028 	 -2.458296 	 3.482668 
H 	 -4.275564 	 -0.893091 	 -2.114371 
H 	 -5.108930 	 -0.044314 	 -1.220362 
H 	 -5.738175 	 -1.298199 	 4.311956 
H 	 -6.927925 	 -1.869254 	 5.132509 
H 	 0.063826 	 0.997076 	 4.964988 
H 	 -0.580313 	 -0.316044 	 4.267266 
H 	 2.400849 	 3.987707 	 -6.368526 
H 	 3.801008 	 3.649160 	 -6.904468 
H 	 -5.486076 	 3.123280 	 -2.070930 
H 	 -4.260696 	 3.116159 	 -2.989291 
H 	 -1.420108 	 -2.548613 	 6.426135 
H 	 -0.915511 	 -3.749203 	 5.510680 
H 	 6.870839 	 -1.729261 	 -6.083156 
H 	 7.224888 	 -0.839913 	 -4.889214 
H 	 3.323135 	 2.114997 	 -5.274789 
H 	 4.594009 	 1.280314 	 -5.046277 
H 	 -4.399646 	 -3.565945 	 2.799771 
H 	 -3.746520 	 -3.728034 	 4.221819 
H 	 0.775507 	 1.364306 	 0.526506 
H 	 -0.121013 	 0.280069 	 1.294516 
H 	 4.784785 	 4.390420 	 -0.548300 
H 	 3.560952 	 5.300300 	 -0.420200 
H 	 -6.009673 	 -5.088214 	 -5.162534 
H 	 -5.966430 	 -5.199240 	 -6.661926 
H 	 3.700946 	 0.103776 	 -0.582352 
H 	 2.661188 	 1.297552 	 -0.549952 
H 	 5.034493 	 -3.280584 	 -3.022634 
H 	 4.887219 	 -4.760328 	 -2.883710 
H 	 -4.942393 	 -4.826631 	 -2.696555 
H 	 -5.696659 	 -6.118190 	 -2.596542 
H 	 -3.589240 	 -5.919845 	 6.961356 
H 	 -3.486554 	 -4.413189 	 6.668896 
H 	 0.268531 	 0.749178 	 -5.427100 
H 	 0.677255 	 -0.238969 	 -4.225090 
H 	 -2.528386 	 4.933614 	 -7.315774 
H 	 -2.850037 	 4.577828 	 -5.902430 
H 	 1.213840 	 -5.908647 	 -3.648621 
H 	 2.296897 	 -5.772608 	 -2.578485 
H 	 -6.857143 	 3.303898 	 3.101118 
H 	 -5.714020 	 4.053483 	 2.540493 
H 	 3.047529 	 -1.215645 	 -7.071914 
H 	 4.058179 	 -1.195938 	 6.668319 
H 	 -0.055833 	 2.715604 	 -6.759610 
H 	 0.459538 	 1.991076 	 6.897198 
H 	 -5.785106 	 0.732589 	 -5.740419 
H 	 -5.398037 	 -0.567403 	 -6.314354 
H 	 -5.810019 	 4.309636 	 -7.211055 
H 	 -5.024546 	 3.083663 	 7.038226 
H 	 -6.489752 	 -5.829268 	 2.625234 
H 	 -6.355935 	 -7.115811 	 3.386252 
H 	 0.306493 	 -7.280344 	 6.497525 
H 	 -0.876501 	 -7.079840 	 7.468260 
H 	 4.227738 	 6.365962 	 -4.379522 
H 	 3.280952 	 5.712117 	 -3.291619 
H 	 -0.434926 	 3.154617 	 -0.157710 
H 	 0.755367 	 3.287531 	 -1.085467 
H 	 -2.659136 	 2.456608 	 2.936963 
H 	 -3.821845 	 1.595236 	 3.490717 
H 	 3.400412 	 -6.166663 	 -0.598314 
H 	 3.360797 	 -7.542745 	 -1.416142 
H 	 -0.769573 	 -0.252714 	 7.007747 
H 	 -0.996402 	 -0.835564 	 -6.459013 
H 	 5.092017 	 -2.089323 	 2.694960 
H 	 5.566023 	 -0.665081 	 3.180048 
H 	 1.120651 	 -4.192273 	 4.357366 
H 	 0.649897 	 -5.650721 	 4.090732 
H 	 -0.566181 	 -5.942629 	 -0.954936 
H 	 -0.945331 	 -7.049730 	 -1.922038 
H 	 1.097592 	 3.734557 	 4.869577 
H 	 2.099919 	 2.474953 	 4.560163 
H 	 -0.647718 	 6.081766 	 0.569464 
H 	 -0.934477 	 4.843705 	 1.455675 
H 	 7.283834 	 3.953961 	 -5.788165 
H 	 5.719341 	 4.061080 	 -5.530237 
H 	 -1.817641 	 -0.589218 	 -3.379195 
H 	 -1.651858 	 -1.085779 	 -2.016870 
H 	 2.065444 	 -1.938523 	 5.810426 
H 	 0.747028 	 -1.469682 	 5.431415 
H 	 6.592023 	 5.030174 	 1.823093 
H 	 5.113145 	 5.279705 	 1.803763 
H 	 -4.713532 	 1.557077 	 1.288516 
H 	 -5.570322 	 2.173908 	 0.103863 
H 	 -5.184303 	 -2.715469 	 7.116092 
H 	 -3.806583 	 -2.134081 	 7.352945 
H 	 -4.129300 	 -0.661404 	 5.882814 
H 	 -2.602085 	 -0.852040 	 6.303713 
H 	 0.728433 	 -5.764745 	 0.894916 
H 	 1.825460 	 -6.194066 	 1.785829 
H 	 6.826549 	 -7.349585 	 -4.344893 
H 	 6.251279 	 6.974343 	 -5.739975 
H 	 0.218452 	 5.296445 	 -6.317024 
H 	 -0.002399 	 4.945649 	 -4.802634 
H 	 5.988705 	 0.401072 	 -7.208458 
H 	 6.581586 	 1.483043 	 -6.369600 
H 	 -3.267094 	 -0.188112 	 0.742787 
H 	 -2.179839 	 -0.856161 	 1.591631 
H 	 2.446590 	 6.690205 	 -6.385962 
H 	 2.377670 	 -6.797807 	 -6.824011 
H 	 -2.820601 	 -2.734105 	 -4.991632 
H 	 -3.411248 	 -1.411560 	 -5.220498 
H 	 -2.630145 	 2.897876 	 6.049626 
H 	 -3.079154 	 1.337666 	 6.012797 
H 	 -7.370239 	 -0.784503 	 -1.491215 
H 	 6.014663 	 -1.209997 	 -1.385296 
H 	 3.133974 	 -1.893495 	 -0.329158 
H 	 3.845476 	 -1.658548 	 -1.688778 
H 	 3.755579 	 2.983266 	 1.545142 
H 	 4.562604 	 3.036405 	 2.866375 
H 	 -4.449797 	 6.127992 	 2.200892 
H 	 -3.668215 	 4.784715 	 2.364701 
H 	 4.177213 	 -4.571239 	 1.633353 
H 	 4.920574 	 -3.515222 	 0.682056 
H 	 5.266452 	 -0.291506 	 -3.189066 
H 	 3.903326 	 -0.282324 	 -3.821272 
H 	 4.364440 	 -2.172351 	 -5.336325 
H 	 3.973615 	 -3.463664 	 -4.812430 
H 	 0.340267 	 7.083124 	 -4.577178 
H 	 -0.343611 	 -6.570549 	 -5.133017 
H 	 6.879530 	 7.067124 	 4.997767 
H 	 6.526051 	 6.128640 	 3.809363 
H 	 1.371230 	 5.064232 	 1.520481 
H 	 2.480241 	 4.625632 	 2.497463 
H 	 1.046178 	 6.547654 	 3.416085 
H 	 -0.184284 	 6.797380 	 4.243696 
H 	 -6.451082 	 3.783194 	 0.459982 
H 	 -5.578522 	 4.697862 	 -0.361536 
H 	 6.379703 	 1.927991 	 2.373199 
H 	 6.587699 	 1.277298 	 3.787633 
H 	 1.738344 	 -7.431792 	 -0.649030 
H 	 0.913515 	 6.290880 	 -1.391178 
H 	 -0.747984 	 -4.196198 	 1.968270 
H 	 -1.623950 	 -4.151542 	 0.677158 
H 	 -4.039378 	 6.632594 	 6.303685 
H 	 -4.223322 	 6.034684 	 4.903856 
H 	 -3.263076 	 6.590576 	 -1.313251 
H 	 -3.505993 	 5.273855 	 -2.020002 
H 	 -2.232841 	 7.110681 	 -3.521412 
H 	 -3.254525 	 -6.758263 	 -2.969017 
H 	 -7.095799 	 7.057989 	 -1.805405 
H 	 -5.584123 	 6.545701 	 -2.172431 
H 	 3.049449 	 0.027822 	 3.673564 
H 	 2.195118 	 0.614365 	 2.572265 
H 	 7.140072 	 4.330730 	 -2.531046 
H 	 5.657849 	 4.142727 	 -2.782523 
H 	 0.937673 	 -1.685081 	 -0.349895 
H 	 0.375974 	 -3.142677 	 -0.139385 
H 	 -0.229628 	 2.376935 	 2.910637 
H 	 -0.784030 	 3.592264 	 3.596840 
H 	 1.995975 	 -2.152413 	 3.683916 
H 	 2.291904 	 -2.449929 	 2.131773 
H 	 -6.703588 	 -3.130964 	 -4.323917 
H 	 -5.299617 	 -2.876640 	 -3.946880 
H 	 5.652733 	 -2.863496 	 6.267587 
H 	 5.650055 	 -2.080071 	 4.948666 
H 	 -2.318241 	 -2.209518 	 -0.174615 
H 	 -3.469143 	 -3.293119 	 -0.335728 
H 	 -7.440228 	 2.023753 	 -3.738287 
H 	 -6.223281 	 1.209788 	 -3.434572 
H 	 -0.613119 	 4.763346 	 6.231830 
H 	 -1.835449 	 5.403024 	 5.660429 
H 	 -3.563618 	 1.918035 	 -5.870811 
H 	 -2.076201 	 1.740715 	 -6.280303 
H 	 -6.763067 	 0.558099 	 5.570376 
H 	 -7.053671 	 2.085602 	 5.792560 
H 	 -0.366265 	 5.039153 	 -2.711465 
O 	 6.463319 	 7.130951 	 7.490460 
O 	 4.112167 	 -6.963453 	 3.320536 
O 	 1.130974 	 5.272434 	 6.217032 
O 	 -0.829931 	 -3.713203 	 -2.462149 
O 	 1.262696 	 -0.166994 	 -1.773520 
O 	 3.608414 	 -4.347506 	 4.720876 
O 	 -7.368107 	 -4.012071 	 3.049081 
O 	 -6.679263 	 -5.062531 	 5.880965 
O 	 -6.732258 	 -0.879638 	 1.556835 
O 	 -3.091109 	 -6.986023 	 0.711770 
O 	 3.850442 	 5.995200 	 5.138198 
O 	 6.061453 	 4.349396 	 5.670439 
O 	 -5.604250 	 6.794610 	 -7.212253 
O 	 -2.566629 	 3.896366 	 -3.488747 
O 	 -1.571382 	 -4.538285 	 -5.202642 
O 	 -5.937963 	 5.159211 	 -4.756036 
O 	 -2.775372 	 -6.858507 	 -6.417220 
O 	 5.313101 	 -4.651086 	 7.124135 
O 	 -2.235194 	 2.457825 	 -0.756384 
O 	 6.265263 	 2.556920 	 0.397227 
O 	 6.608855 	 -3.991169 	 -0.760439 
O 	 1.532388 	 -2.426496 	 -3.546231 
O 	 1.899608 	 3.232689 	 -2.627250 
O 	 -5.192937 	 -3.095797 	 0.837728 
O 	 1.572939 	 -4.459321 	 -6.398446 
O 	 4.826176 	 1.570024 	 5.861257 
O 	 7.105612 	 -6.909968 	 -0.353019 
O 	 -1.149434 	 -1.914854 	 3.197176 
O 	 -5.201339 	 -0.811180 	 -1.858866 
O 	 -6.017740 	 -1.514813 	 5.238308 
O 	 -0.185763 	 0.042577 	 5.086277 
O 	 2.905262 	 3.277822 	 -6.816482 
O 	 -5.257217 	 2.887763 	 -2.985601 
O 	 -1.685983 	 -3.175382 	 5.719701 
O 	 -7.468655 	 -1.684326 	 -5.305400 
O 	 3.736523 	 1.516956 	 -4.590396 
O 	 -3.607809 	 -3.884689 	 3.260699 
O 	 0.802609 	 0.607947 	 1.167133 
O 	 4.227917 	 5.010124 	 -1.074010 
O 	 -6.475171 	 -5.534891 	 -5.913939 
O 	 3.597129 	 1.058937 	 -0.598577 
O 	 4.680977 	 -4.030438 	 -3.486588 
O 	 -4.899772 	 -5.685871 	 -2.244124 
O 	 -3.734214 	 -5.262533 	 6.236703 
O 	 0.344213 	 -0.199997 	 -5.132347 
O 	 -3.025651 	 5.308613 	 -6.541551 
O 	 1.425685 	 -5.348953 	 -2.836028 
O 	 -6.614187 	 3.697955 	 2.253311 
O 	 3.184989 	 -0.852474 	 6.904698 
O 	 0.025532 	 1.824250 	 -7.141535 
O 	 -5.049112 	 0.365483 	 -6.238513 
O 	 -5.913190 	 3.477671 	 7.207131 
O 	 -5.943349 	 -6.640905 	 2.609016 
O 	 -0.674215 	 -7.229576 	 6.516906 
O 	 3.338639 	 5.955909 	 -4.215885 
O 	 0.547622 	 3.228530 	 -0.112215 
O 	 -3.496393 	 1.990441 	 2.659420 
O 	 3.803737 	 -6.674201 	 -1.322764 
O 	 -1.338935 	 -0.872381 	 7.519441 
O 	 5.837743 	 -1.604887 	 3.109948 
O 	 0.331478 	 -4.716423 	 4.095724 
O 	 -0.675008 	 -6.906244 	 -1.004590 
O 	 1.317252 	 2.794617 	 5.051214 
O 	 -1.361049 	 5.589448 	 1.023008 
O 	 6.402165 	 3.644811 	 -6.108189 
O 	 -1.588006 	 -0.217446 	 -2.484163 
O 	 1.302406 	 -2.278142 	 5.274678 
O 	 5.970917 	 5.763886 	 1.790217 
O 	 -5.216557 	 1.341151 	 0.470586 
O 	 -4.609983 	 -2.376123 	 -7.042100 
O 	 -3.257838 	 -0.951429 	 5.549601 
O 	 1.717862 	 -5.904954 	 0.880401 
O 	 6.105365 	 6.972871 	 -4.763355 
O 	 0.447625 	 4.645515 	 -5.642542 
O 	 6.174231 	 0.602522 	 -6.290901 
O 	 -2.360262 	 -0.542292 	 0.693809 
O 	 2.934299 	 7.293498 	 -6.975620 
O 	 -3.007154 	 -1.929113 	 -4.501208 
O 	 -3.315043 	 2.235348 	 6.254141 
O 	 6.646882 	 -0.488633 	 -1.225497 
O 	 3.999519 	 -1.930374 	 -0.747515 
O 	 3.991695 	 3.585034 	 2.284706 
O 	 -4.250579 	 5.418852 	 2.852850 
O 	 4.937293 	 -3.977484 	 1.573492 
O 	 4.582035 	 -0.946168 	 -3.517739 
O 	 3.930233 	 -2.982369 	 -5.677082 
O 	 0.453097 	 -7.096758 	 -5.181279 
O 	 7.194007 	 6.776874 	 4.116343 
O 	 1.657314 	 5.167239 	 2.436787 
O 	 0.620719 	 7.274411 	 3.950242 
O 	 -6.218878 	 3.952772 	 -0.483133 
O 	 5.881439 	 1.547528 	 3.152160 
O 	 1.735943 	 6.486115 	 -0.894142 
O 	 -0.858500 	 -4.643159 	 1.119873 
O 	 -3.538747 	 6.361002 	 5.510683 
O 	 -3.969681 	 6.086825 	 -1.708328 
O 	 -2.484015 	 -6.838497 	 -3.613297 
O 	 -6.456824 	 6.884961 	 -2.536221 
O 	 2.843151 	 0.881794 	 3.278989 
O 	 6.499920 	 3.652361 	 -2.829564 
O 	 1.151384 	 -2.561122 	 0.024127 
O 	 -1.049842 	 2.894954 	 2.963437 
O 	 2.719973 	 -2.171754 	 2.997653 
O 	 -5.913790 	 -3.626789 	 -4.000956 
O 	 5.947465 	 -1.987055 	 5.885617 
O 	 -2.524462 	 -3.141333 	 -0.405271 
O 	 -7.022958 	 1.187559 	 -4.033601 
O 	 -1.476986 	 4.526965 	 5.849975 
O 	 -2.649937 	 2.026789 	 -5.558475 
O 	 -7.036364 	 1.378489 	 5.117066 
O 	 -0.821981 	 5.659736 	 -3.263083 
K 	 -2.462417 	 -6.200178 	 3.614650 
