333
conformation = 33
H 	 2.520251 	 7.116977 	 5.768524 
H 	 1.568567 	 -6.456723 	 5.776095 
H 	 -0.993009 	 7.528158 	 2.698499 
H 	 -0.032957 	 7.593162 	 1.534565 
H 	 -2.593564 	 4.621883 	 5.838497 
H 	 -2.347792 	 5.485100 	 4.560163 
H 	 -4.878736 	 -3.816980 	 -3.312708 
H 	 -6.454744 	 -3.725066 	 -3.127293 
H 	 -5.093603 	 -0.177981 	 -2.838846 
H 	 -4.054657 	 -0.838954 	 -3.684579 
H 	 -0.572529 	 -5.251544 	 2.759460 
H 	 -1.075417 	 -3.788102 	 3.095817 
H 	 2.381003 	 -3.929165 	 1.581730 
H 	 2.931430 	 -5.004875 	 2.532136 
H 	 4.292653 	 -4.741179 	 4.817316 
H 	 2.912086 	 -4.055730 	 5.144452 
H 	 4.309013 	 0.063590 	 0.519288 
H 	 2.946048 	 -0.514755 	 -0.059257 
H 	 6.312634 	 -6.174929 	 -0.575922 
H 	 -7.126876 	 -6.773774 	 -0.876283 
H 	 0.184221 	 5.397129 	 4.497914 
H 	 -0.598832 	 6.491908 	 5.237910 
H 	 2.231962 	 3.706826 	 4.722635 
H 	 0.940853 	 3.450133 	 3.852474 
H 	 4.999785 	 7.552355 	 7.078706 
H 	 4.806147 	 6.073244 	 6.959536 
H 	 -6.439553 	 4.934653 	 -4.734605 
H 	 -7.058843 	 3.397438 	 -5.089853 
H 	 -5.405288 	 -4.524649 	 -5.470504 
H 	 -4.990224 	 -4.330305 	 -7.008710 
H 	 4.199832 	 6.058026 	 -5.287427 
H 	 4.550742 	 4.570382 	 -5.385193 
H 	 -7.335403 	 -7.296088 	 -7.367848 
H 	 -6.895914 	 -5.762623 	 -7.032364 
H 	 0.066091 	 -4.542304 	 6.604494 
H 	 0.026616 	 -4.830434 	 5.080500 
H 	 -6.639150 	 2.992579 	 -3.370907 
H 	 -6.564977 	 1.506882 	 -2.740542 
H 	 1.986791 	 2.835055 	 -1.754535 
H 	 0.760495 	 1.947755 	 -1.777602 
H 	 2.994110 	 -3.828432 	 -2.503104 
H 	 1.672884 	 -4.233533 	 -1.834132 
H 	 -1.962535 	 -1.701633 	 -4.618969 
H 	 -2.662306 	 -3.074952 	 -4.145794 
H 	 -1.670632 	 2.661166 	 -4.160362 
H 	 -1.722137 	 3.804291 	 -3.114208 
H 	 4.657315 	 -3.333243 	 0.881516 
H 	 4.787853 	 -2.229390 	 -0.177895 
H 	 -2.685101 	 -3.948742 	 7.366923 
H 	 -3.298215 	 -4.213664 	 5.919968 
H 	 -1.060983 	 2.064579 	 4.750684 
H 	 -0.047755 	 1.065723 	 4.134280 
H 	 1.483572 	 -6.536076 	 -0.490137 
H 	 2.902294 	 -6.019171 	 -0.232264 
H 	 -6.492870 	 -2.297971 	 2.429602 
H 	 -5.174729 	 -2.248764 	 3.020505 
H 	 4.838206 	 -1.392627 	 -3.544272 
H 	 5.382628 	 -0.004819 	 -2.966829 
H 	 3.532897 	 -2.063340 	 3.072387 
H 	 2.979816 	 -1.527644 	 4.364795 
H 	 -5.183815 	 1.280026 	 3.693541 
H 	 -5.485013 	 -0.165636 	 3.354913 
H 	 -1.979848 	 3.844682 	 -6.859153 
H 	 -0.576325 	 3.998865 	 7.351532 
H 	 4.885909 	 2.958374 	 -3.146391 
H 	 6.102528 	 3.150160 	 -4.103087 
H 	 -6.116771 	 -2.402579 	 6.165912 
H 	 -5.324363 	 -3.500264 	 5.352708 
H 	 2.073518 	 -1.645790 	 -6.863918 
H 	 2.286536 	 -0.845754 	 -5.598487 
H 	 -1.560517 	 1.679415 	 -6.246704 
H 	 -0.047098 	 1.715570 	 -6.637927 
H 	 6.444503 	 -2.905986 	 1.475454 
H 	 6.356356 	 -2.568004 	 2.997691 
H 	 -4.181603 	 1.207462 	 -0.099270 
H 	 -5.090306 	 0.086291 	 0.228111 
H 	 -0.197747 	 5.030638 	 -1.523521 
H 	 -1.610411 	 5.603917 	 -2.026735 
H 	 4.150638 	 -5.085093 	 -6.237231 
H 	 3.763262 	 -5.189533 	 7.130825 
H 	 -1.504090 	 0.129961 	 -1.633015 
H 	 -2.181162 	 1.299901 	 -2.260426 
H 	 1.097075 	 -3.903315 	 -4.075441 
H 	 -0.233649 	 -4.748981 	 -3.868881 
H 	 5.350579 	 -4.935350 	 -3.824918 
H 	 5.175753 	 -6.449967 	 -3.360208 
H 	 7.208874 	 -5.799889 	 5.497670 
H 	 7.184926 	 -4.363120 	 5.065787 
H 	 -4.957778 	 0.049622 	 -5.420894 
H 	 -4.030022 	 -1.200546 	 -5.465422 
H 	 -6.216729 	 5.101653 	 7.427550 
H 	 7.414490 	 5.195156 	 -6.594504 
H 	 -3.295113 	 -5.891247 	 -5.003769 
H 	 -2.582635 	 -5.626785 	 -3.668642 
H 	 3.076540 	 3.321856 	 1.936767 
H 	 4.707791 	 3.497086 	 1.824229 
H 	 -1.772029 	 -0.030982 	 6.104544 
H 	 -0.513999 	 -0.771781 	 5.557960 
H 	 -4.474925 	 3.413405 	 7.008787 
H 	 -4.526208 	 2.231160 	 5.950807 
H 	 4.704462 	 0.761395 	 -6.257599 
H 	 5.052405 	 -0.020014 	 7.213009 
H 	 5.089829 	 3.184425 	 5.695853 
H 	 4.302405 	 2.473662 	 6.687552 
H 	 4.937700 	 -5.850425 	 1.288938 
H 	 4.260740 	 -7.012927 	 2.059442 
H 	 -4.674724 	 7.137791 	 5.926912 
H 	 -5.968677 	 -6.970743 	 5.990703 
H 	 -0.491767 	 6.136625 	 -5.271538 
H 	 -1.820191 	 5.737380 	 -4.680244 
H 	 -5.092389 	 2.776641 	 -1.533685 
H 	 -3.639365 	 3.174628 	 -1.973396 
H 	 7.471948 	 2.564583 	 1.834338 
H 	 6.550552 	 1.703891 	 2.709727 
H 	 -1.421451 	 -6.508402 	 -1.800341 
H 	 -0.255640 	 -7.295758 	 -2.297240 
H 	 -5.589315 	 -0.379776 	 5.776960 
H 	 -5.107990 	 -0.592428 	 7.255057 
H 	 -0.222632 	 -1.941692 	 1.749342 
H 	 0.957375 	 -0.954894 	 1.820198 
H 	 -3.600369 	 -4.230544 	 3.751880 
H 	 -4.249856 	 -5.555149 	 3.327427 
H 	 -4.852220 	 -6.292742 	 -1.724845 
H 	 -5.713625 	 -6.766941 	 -2.931748 
H 	 -3.025211 	 3.367223 	 4.123125 
H 	 -2.586738 	 2.184962 	 3.193042 
H 	 -5.734282 	 5.779414 	 -0.636946 
H 	 -5.547934 	 4.428156 	 0.067098 
H 	 2.402864 	 4.305362 	 7.045207 
H 	 2.165671 	 4.935993 	 -6.572840 
H 	 -7.069678 	 -0.455899 	 -4.483987 
H 	 -7.194769 	 -0.856934 	 -2.959485 
H 	 -2.532721 	 -2.079122 	 4.859612 
H 	 -4.006863 	 -1.787049 	 5.223898 
H 	 1.782195 	 5.810863 	 0.040461 
H 	 0.554120 	 5.065506 	 0.711302 
H 	 5.891145 	 2.042606 	 -0.250530 
H 	 4.655801 	 1.952187 	 -1.095487 
H 	 4.912803 	 -2.324542 	 5.748652 
H 	 5.340071 	 -3.387171 	 6.721846 
H 	 5.750103 	 -0.757520 	 4.226817 
H 	 7.002373 	 -1.106685 	 4.991494 
H 	 -3.706534 	 -5.935144 	 -0.032611 
H 	 -2.501254 	 -6.755040 	 0.637379 
H 	 2.039785 	 7.266253 	 -5.312858 
H 	 1.201346 	 7.100651 	 -6.575029 
H 	 -3.639649 	 5.733023 	 -6.967259 
H 	 -4.492422 	 4.930859 	 -5.953505 
H 	 1.088915 	 1.240782 	 6.307222 
H 	 2.289198 	 1.199887 	 7.375944 
H 	 7.212988 	 0.075406 	 0.010439 
H 	 -6.598799 	 -0.656938 	 0.864741 
H 	 -1.955796 	 7.027607 	 7.406973 
H 	 -2.400222 	 -6.508513 	 6.791831 
H 	 -6.968828 	 -2.762789 	 -5.341617 
H 	 7.307746 	 -1.835431 	 -6.524769 
H 	 -7.165317 	 2.672139 	 5.189914 
H 	 7.359779 	 1.232288 	 4.889574 
H 	 2.990877 	 -0.735653 	 -2.361490 
H 	 1.952801 	 -1.800188 	 -2.689392 
H 	 -1.855389 	 -2.433674 	 -1.446855 
H 	 -0.693528 	 -2.318467 	 -2.461892 
H 	 -0.231960 	 3.059035 	 0.168723 
H 	 0.031373 	 2.712166 	 1.604423 
H 	 5.767931 	 5.791942 	 1.126492 
H 	 7.214019 	 5.261318 	 1.188539 
H 	 -0.171901 	 -4.906196 	 0.234270 
H 	 -0.142272 	 -3.460778 	 -0.123989 
H 	 0.287095 	 -1.491310 	 -4.841304 
H 	 -0.575160 	 -0.154929 	 -5.041859 
H 	 -1.234542 	 -2.026866 	 7.426196 
H 	 -0.492719 	 -2.919591 	 -6.327003 
H 	 -4.627444 	 6.970493 	 -5.344350 
H 	 -4.704616 	 -6.953353 	 -6.543262 
H 	 2.185713 	 7.216321 	 3.723881 
H 	 2.158622 	 6.587989 	 2.307471 
H 	 -3.493470 	 4.722309 	 0.493215 
H 	 -2.315929 	 4.206330 	 1.389165 
H 	 -3.977780 	 6.570724 	 2.396200 
H 	 -3.714947 	 7.501249 	 3.662630 
H 	 4.037095 	 4.573368 	 -0.428261 
H 	 5.033724 	 4.844294 	 -1.628093 
H 	 2.040411 	 1.635756 	 0.970292 
H 	 2.251762 	 1.714371 	 2.526408 
H 	 -3.414400 	 6.682624 	 -1.353232 
H 	 -3.897774 	 6.384316 	 -2.642041 
H 	 -5.758530 	 -4.032430 	 0.927799 
H 	 -6.172937 	 -4.138690 	 -0.567180 
H 	 6.120698 	 6.590552 	 5.177334 
H 	 6.265911 	 5.829873 	 3.808725 
H 	 6.541094 	 6.589515 	 -1.682616 
H 	 6.941188 	 5.166965 	 -2.201076 
H 	 -6.941374 	 7.159599 	 -4.624254 
H 	 7.109305 	 -6.629929 	 -3.977558 
H 	 3.075061 	 7.593234 	 -2.528307 
H 	 3.487022 	 6.195090 	 -2.770932 
H 	 -2.138762 	 -0.108149 	 2.100318 
H 	 -1.648936 	 1.131043 	 1.374153 
H 	 1.413034 	 4.928414 	 -3.603639 
H 	 0.450096 	 3.812325 	 -3.926284 
H 	 -3.955310 	 -1.699762 	 -0.796271 
H 	 -4.191718 	 -3.180145 	 -0.283106 
H 	 -4.516521 	 2.862307 	 2.270881 
H 	 -5.533245 	 3.834423 	 3.067684 
H 	 -2.954388 	 -1.947201 	 2.206296 
H 	 -2.575673 	 -2.230984 	 0.771101 
H 	 3.611610 	 -2.837715 	 -5.215863 
H 	 5.231822 	 -2.796460 	 -5.197839 
H 	 1.051191 	 -2.684558 	 5.417915 
H 	 0.858573 	 -1.833953 	 4.065559 
H 	 7.319291 	 -2.332844 	 -0.812099 
H 	 6.474085 	 -3.354592 	 -1.475046 
H 	 2.804251 	 1.507822 	 -4.514492 
H 	 3.544257 	 0.203654 	 -4.207584 
H 	 -5.119142 	 4.958026 	 4.700827 
H 	 -6.654152 	 5.365286 	 4.737078 
H 	 7.076186 	 1.762240 	 -7.248700 
H 	 -6.362204 	 1.847336 	 -6.967337 
H 	 3.380517 	 0.419033 	 3.818855 
H 	 3.624360 	 1.744615 	 4.740173 
H 	 -4.662781 	 5.263262 	 -3.904603 
O 	 1.575489 	 7.429500 	 5.758260 
O 	 -0.865687 	 -6.870326 	 1.834669 
O 	 -3.024101 	 4.989813 	 5.058423 
O 	 -5.710762 	 -3.522684 	 -3.717804 
O 	 -4.130968 	 -0.187164 	 -2.955410 
O 	 -0.881685 	 -4.668667 	 3.495251 
O 	 3.190245 	 -4.188644 	 2.068638 
O 	 3.380759 	 -4.902159 	 5.215904 
O 	 3.674832 	 -0.684448 	 0.572868 
O 	 6.969453 	 -6.877671 	 -0.309477 
O 	 -0.571561 	 5.995668 	 4.407849 
O 	 1.651162 	 4.090174 	 4.041045 
O 	 4.736675 	 6.864139 	 6.404111 
O 	 -7.306942 	 4.271573 	 -4.700069 
O 	 -5.766020 	 -4.326290 	 -6.366280 
O 	 4.125392 	 5.286998 	 -5.905072 
O 	 7.496533 	 -6.337492 	 7.287086 
O 	 0.672437 	 -4.603079 	 5.810160 
O 	 -6.512301 	 2.465161 	 -2.566218 
O 	 1.401298 	 2.352720 	 -1.140270 
O 	 2.022578 	 -3.774917 	 -2.635148 
O 	 -2.791266 	 -2.221423 	 -4.600793 
O 	 -2.314558 	 3.247292 	 -3.697904 
O 	 5.120909 	 -3.166806 	 0.025520 
O 	 -3.281269 	 -4.562776 	 6.857165 
O 	 -0.080069 	 1.881782 	 4.694535 
O 	 2.284717 	 -6.326027 	 -0.932739 
O 	 -5.645144 	 -1.849219 	 2.267247 
O 	 4.869292 	 -0.782249 	 -2.780035 
O 	 3.795656 	 -1.486859 	 3.810380 
O 	 -5.087093 	 0.394150 	 4.070436 
O 	 -1.532207 	 3.813426 	 7.181125 
O 	 5.274610 	 2.629890 	 -3.970768 
O 	 -6.212575 	 -3.140788 	 5.525785 
O 	 2.165893 	 -1.795829 	 -5.907222 
O 	 -0.678265 	 1.606208 	 -5.900202 
O 	 6.734937 	 -3.247622 	 2.386200 
O 	 -4.258697 	 0.471033 	 0.536094 
O 	 -0.813258 	 5.121308 	 -2.287833 
O 	 4.219505 	 -5.660951 	 -7.022620 
O 	 -1.348465 	 1.095367 	 -1.754745 
O 	 0.235674 	 -4.181998 	 -4.527010 
O 	 5.530898 	 -5.567647 	 -3.071958 
O 	 6.772802 	 -5.213310 	 4.839794 
O 	 -4.270000 	 -0.405514 	 -5.970132 
O 	 -7.137636 	 5.393885 	 7.425158 
O 	 -3.227571 	 -5.224482 	 -4.265746 
O 	 3.825282 	 3.584065 	 1.382656 
O 	 -1.482181 	 -0.653111 	 5.425097 
O 	 -4.908341 	 2.546468 	 6.813670 
O 	 4.965659 	 0.833853 	 -7.219233 
O 	 4.145025 	 3.090662 	 5.924111 
O 	 4.964877 	 -6.821840 	 1.383059 
O 	 -5.263856 	 -7.229448 	 5.368732 
O 	 -1.376486 	 5.806521 	 -5.532718 
O 	 -4.250184 	 3.177578 	 -1.220064 
O 	 6.738650 	 1.893150 	 1.768629 
O 	 -0.514196 	 -6.365120 	 -2.167997 
O 	 -5.885673 	 -0.661000 	 6.667882 
O 	 0.588486 	 -1.744512 	 2.245924 
O 	 -4.465275 	 -4.627013 	 3.517128 
O 	 -5.590936 	 -6.893501 	 -1.952654 
O 	 -3.158356 	 2.408100 	 3.943217 
O 	 -5.914046 	 5.320954 	 0.218409 
O 	 1.695971 	 4.349580 	 -7.195277 
O 	 -6.942064 	 -0.132369 	 -3.575437 
O 	 -3.448696 	 -2.395277 	 4.715748 
O 	 0.949843 	 5.957354 	 0.534742 
O 	 5.381757 	 1.387614 	 -0.759826 
O 	 5.334624 	 -2.429035 	 6.607160 
O 	 6.704007 	 -0.557463 	 4.263323 
O 	 -2.786492 	 -6.255909 	 -0.173964 
O 	 1.194518 	 6.870381 	 -5.650389 
O 	 -4.326034 	 5.026771 	 -6.933050 
O 	 1.350630 	 0.964466 	 7.229525 
O 	 -7.097940 	 -0.699382 	 0.009821 
O 	 -1.766565 	 -7.255064 	 6.667434 
O 	 7.152661 	 -2.212380 	 -5.642034 
O 	 6.927344 	 2.103651 	 5.083113 
O 	 2.034413 	 -0.989955 	 -2.141066 
O 	 -0.870963 	 -2.227329 	 -1.508814 
O 	 -0.348157 	 3.447405 	 1.074838 
O 	 6.346782 	 5.230945 	 1.657960 
O 	 0.414166 	 -4.143077 	 0.290231 
O 	 -0.620715 	 -1.131928 	 -4.819261 
O 	 -1.049851 	 -2.900282 	 -7.126050 
O 	 -4.107576 	 -7.261261 	 -5.836658 
O 	 2.478688 	 7.358874 	 2.797568 
O 	 -3.013388 	 4.915745 	 1.331889 
O 	 -3.890168 	 7.500194 	 2.698514 
O 	 4.160151 	 4.499956 	 -1.390510 
O 	 1.563152 	 1.610146 	 1.826956 
O 	 -3.086154 	 6.277258 	 -2.155202 
O 	 -5.581368 	 -4.532026 	 0.124738 
O 	 6.690394 	 6.514670 	 4.369881 
O 	 6.332565 	 5.910272 	 -2.391570 
O 	 -7.084316 	 -6.754181 	 -4.585221 
O 	 3.401472 	 7.010630 	 -3.269852 
O 	 -1.663579 	 0.751018 	 2.272405 
O 	 1.338907 	 3.952393 	 -3.564928 
O 	 -3.536370 	 -2.596739 	 -0.697294 
O 	 -5.454662 	 3.156056 	 2.377568 
O 	 -2.176708 	 -2.005367 	 1.631148 
O 	 4.416897 	 -3.146169 	 -4.757397 
O 	 1.143888 	 -1.813646 	 5.002440 
O 	 7.430119 	 -3.040078 	 -1.492416 
O 	 3.095744 	 0.697329 	 -4.928524 
O 	 -6.039215 	 4.617323 	 4.584858 
O 	 -7.200405 	 1.866419 	 -6.464116 
O 	 3.524739 	 1.405518 	 3.804858 
O 	 -5.286576 	 5.646470 	 -4.545416 
K 	 -6.909111 	 -6.352187 	 2.507186 
