333
conformation = 31
H 	 5.457416 	 -6.108114 	 3.533246 
H 	 4.478078 	 -4.932778 	 3.344931 
H 	 1.672881 	 -5.694957 	 0.486075 
H 	 2.776522 	 -5.875807 	 -0.645014 
H 	 0.440580 	 6.323808 	 3.536647 
H 	 0.569709 	 6.926437 	 2.251895 
H 	 -2.027827 	 -2.254053 	 -5.579665 
H 	 -3.484228 	 -2.041330 	 -5.123263 
H 	 -2.287679 	 1.454096 	 -5.007424 
H 	 -1.183551 	 0.653630 	 -5.802319 
H 	 2.386925 	 -3.659961 	 0.512331 
H 	 1.895408 	 -2.299864 	 0.968481 
H 	 5.342463 	 -2.455942 	 -0.682083 
H 	 5.859743 	 -3.645949 	 0.098102 
H 	 7.182575 	 -3.384105 	 2.656953 
H 	 5.911053 	 -2.481492 	 2.861489 
H 	 7.166095 	 1.601320 	 -1.925898 
H 	 5.769876 	 1.061143 	 -2.142284 
H 	 -5.728657 	 -4.732344 	 -2.938235 
H 	 -4.262878 	 -5.189842 	 -3.101877 
H 	 3.144047 	 7.031335 	 2.189179 
H 	 2.427172 	 -6.816673 	 3.029975 
H 	 5.069632 	 5.258378 	 2.466370 
H 	 3.836062 	 4.981451 	 1.739895 
H 	 -7.113116 	 -5.875079 	 4.862057 
H 	 -7.441617 	 7.506502 	 4.623586 
H 	 -3.550662 	 6.327711 	 -6.731180 
H 	 -4.150670 	 5.062307 	 -7.515698 
H 	 -2.332815 	 -2.735582 	 7.116742 
H 	 -2.111718 	 -2.649574 	 5.584643 
H 	 -7.526999 	 -7.318274 	 -7.641560 
H 	 7.330473 	 6.003719 	 7.251322 
H 	 -4.787589 	 -5.597529 	 5.507327 
H 	 -4.148668 	 -4.307652 	 5.827525 
H 	 2.853155 	 -3.073485 	 4.335976 
H 	 2.991293 	 -3.167005 	 2.749044 
H 	 -3.976803 	 4.557955 	 -5.533607 
H 	 -3.911041 	 3.129764 	 -5.166914 
H 	 4.618100 	 4.477529 	 -4.042539 
H 	 3.662484 	 3.184655 	 -3.928744 
H 	 5.940374 	 -2.234710 	 -4.995216 
H 	 4.766997 	 -2.328570 	 -3.935458 
H 	 0.900867 	 -0.334637 	 -6.821894 
H 	 0.149661 	 -1.514301 	 -6.181557 
H 	 1.290990 	 4.159142 	 -6.249885 
H 	 1.095485 	 5.362355 	 -5.266214 
H 	 -7.433718 	 -2.063870 	 -1.355786 
H 	 7.336628 	 -0.885643 	 -2.367214 
H 	 0.116449 	 -2.562318 	 5.173119 
H 	 -0.439007 	 -2.547959 	 3.752310 
H 	 1.777684 	 3.723694 	 2.558263 
H 	 2.579554 	 2.605058 	 1.891585 
H 	 4.305756 	 -4.677897 	 -2.621481 
H 	 5.812972 	 -4.571511 	 -2.361398 
H 	 -3.633311 	 -0.735392 	 0.049788 
H 	 -2.443137 	 -0.559395 	 0.995355 
H 	 -7.268948 	 0.071848 	 -5.660659 
H 	 -6.633362 	 1.403494 	 -5.390032 
H 	 6.355047 	 -0.555468 	 0.818687 
H 	 5.726064 	 -0.036672 	 2.147014 
H 	 -2.510315 	 2.855333 	 1.736632 
H 	 -2.820539 	 1.406024 	 1.237346 
H 	 1.109596 	 5.644783 	 5.928858 
H 	 2.316866 	 5.724392 	 5.132568 
H 	 -7.210005 	 4.436234 	 -5.357709 
H 	 -5.934122 	 4.658745 	 -6.095923 
H 	 -3.263645 	 -1.054203 	 4.179511 
H 	 -2.573370 	 -2.151894 	 3.339090 
H 	 4.833924 	 -0.286155 	 5.893303 
H 	 5.243481 	 0.621245 	 7.121787 
H 	 1.379965 	 3.403996 	 6.328435 
H 	 2.880074 	 3.281240 	 6.147495 
H 	 -5.467057 	 -1.147938 	 -0.605060 
H 	 -5.547985 	 -1.058378 	 0.977758 
H 	 -1.264584 	 2.731219 	 -2.182671 
H 	 -2.361077 	 1.682293 	 -1.959790 
H 	 2.530208 	 6.721004 	 -3.648957 
H 	 1.197665 	 7.181112 	 -4.288969 
H 	 7.129073 	 -3.613430 	 6.572162 
H 	 6.799352 	 -3.546903 	 5.029571 
H 	 1.518972 	 1.644607 	 -3.958759 
H 	 0.744805 	 2.973820 	 -4.445541 
H 	 3.855188 	 -2.325140 	 -6.283812 
H 	 2.763634 	 -3.312007 	 -5.996929 
H 	 -6.581072 	 -3.539342 	 -6.079378 
H 	 -7.013681 	 -4.859414 	 -5.352100 
H 	 -4.985026 	 -4.215571 	 3.312974 
H 	 -4.836172 	 -2.786272 	 2.798780 
H 	 -2.205205 	 1.424127 	 7.135973 
H 	 -1.117728 	 0.245518 	 7.192690 
H 	 -3.300503 	 6.801816 	 5.361101 
H 	 -4.514210 	 6.648130 	 6.191130 
H 	 -0.405830 	 -4.266382 	 -7.304293 
H 	 0.532904 	 -4.035476 	 -6.106439 
H 	 6.313759 	 5.123496 	 0.162813 
H 	 -7.279657 	 4.972398 	 -0.521931 
H 	 1.135343 	 1.722619 	 3.684366 
H 	 2.351607 	 0.691005 	 3.446355 
H 	 -1.496166 	 4.840288 	 4.891856 
H 	 -1.519752 	 3.656616 	 3.889768 
H 	 -7.411714 	 2.098552 	 6.395819 
H 	 -7.094209 	 1.537778 	 5.028711 
H 	 -6.954401 	 4.526696 	 3.428048 
H 	 6.944183 	 3.843472 	 4.394569 
H 	 -7.170471 	 -4.370556 	 -0.929212 
H 	 7.120481 	 -5.580770 	 -0.249867 
H 	 -1.778916 	 -6.394194 	 3.581621 
H 	 -2.913750 	 -5.377175 	 3.891163 
H 	 2.253658 	 -7.218113 	 -7.559507 
H 	 0.876669 	 7.189243 	 -6.980813 
H 	 -2.246876 	 4.453932 	 -3.817691 
H 	 -0.890611 	 4.735753 	 -4.182081 
H 	 -4.679420 	 4.119883 	 -0.450264 
H 	 -5.460177 	 3.345118 	 0.590427 
H 	 1.513375 	 -4.935802 	 -3.927574 
H 	 2.728058 	 -5.634256 	 -4.694336 
H 	 -2.782244 	 1.299689 	 3.623423 
H 	 -2.254096 	 0.888743 	 5.042887 
H 	 2.466099 	 -0.225959 	 -0.151457 
H 	 3.777386 	 0.509655 	 -0.489779 
H 	 -0.752951 	 -2.801471 	 1.707586 
H 	 -1.413015 	 -4.050247 	 1.094872 
H 	 -2.051709 	 -4.772678 	 -3.892410 
H 	 -3.056119 	 -5.158996 	 -5.046358 
H 	 -0.101220 	 4.900435 	 1.758593 
H 	 0.156301 	 3.443449 	 1.105712 
H 	 -2.780271 	 7.357323 	 -2.678160 
H 	 -2.892245 	 5.882720 	 -2.127402 
H 	 5.027384 	 5.851010 	 4.673724 
H 	 5.081678 	 6.367505 	 6.170762 
H 	 -4.221906 	 0.937654 	 -6.661531 
H 	 -4.429997 	 0.487450 	 -5.273841 
H 	 0.208908 	 -0.307084 	 2.656515 
H 	 -1.225202 	 -0.222196 	 2.900636 
H 	 4.497124 	 7.403010 	 -2.342984 
H 	 3.565387 	 6.543822 	 -1.420714 
H 	 -6.071392 	 3.531896 	 -2.510619 
H 	 -7.425183 	 3.302048 	 -3.243607 
H 	 -7.171187 	 -0.912523 	 3.503807 
H 	 -6.856707 	 -1.846598 	 4.666137 
H 	 -6.279922 	 0.981531 	 1.821348 
H 	 -5.178027 	 0.387792 	 2.766364 
H 	 -0.820686 	 -4.524982 	 -2.122342 
H 	 0.374137 	 -5.269398 	 -1.517045 
H 	 4.913616 	 -6.024668 	 -7.440122 
H 	 4.104056 	 -6.331152 	 6.120016 
H 	 -0.851962 	 7.366627 	 5.595069 
H 	 -1.728818 	 6.815386 	 6.706628 
H 	 3.870898 	 2.851063 	 4.075331 
H 	 5.100698 	 2.876200 	 5.002244 
H 	 -4.937198 	 1.503356 	 -2.075370 
H 	 -3.809930 	 0.947066 	 -1.215100 
H 	 0.744622 	 -6.372742 	 5.042725 
H 	 0.425245 	 -4.941849 	 4.527678 
H 	 -4.108753 	 -1.104893 	 -7.442487 
H 	 -4.529195 	 -0.333629 	 6.250403 
H 	 -4.295559 	 4.231283 	 2.868376 
H 	 -4.897626 	 2.695008 	 2.693647 
H 	 5.817922 	 0.822830 	 -4.314998 
H 	 4.905498 	 -0.457740 	 -4.683903 
H 	 1.074549 	 -1.224056 	 -3.552106 
H 	 2.132000 	 -0.685637 	 -4.624062 
H 	 2.875968 	 4.521095 	 -2.041676 
H 	 3.161503 	 4.382102 	 -0.566476 
H 	 -6.250144 	 7.298717 	 -1.064338 
H 	 -4.773268 	 6.849796 	 -1.043581 
H 	 2.743060 	 -3.491066 	 -2.034248 
H 	 2.891567 	 -2.052947 	 -2.569442 
H 	 3.166947 	 0.128448 	 -7.397579 
H 	 2.195965 	 1.343164 	 -7.329115 
H 	 1.876048 	 -0.507624 	 5.163992 
H 	 2.160756 	 -1.271673 	 6.400072 
H 	 -1.538005 	 -6.433373 	 -7.342946 
H 	 -2.024708 	 -5.658819 	 6.376022 
H 	 4.751829 	 -6.090423 	 1.394898 
H 	 5.105297 	 -6.631768 	 -0.004961 
H 	 -0.574232 	 6.232611 	 -1.722473 
H 	 0.588253 	 5.816905 	 -0.815635 
H 	 -1.206979 	 -6.759183 	 0.081641 
H 	 -1.080188 	 -6.180846 	 1.433122 
H 	 6.942658 	 5.991024 	 -2.642308 
H 	 -7.148623 	 6.726752 	 -3.766363 
H 	 4.972407 	 3.335362 	 -1.204178 
H 	 5.035024 	 3.323459 	 0.342432 
H 	 -0.219589 	 -6.797193 	 -3.468413 
H 	 -1.133177 	 -6.937884 	 -4.732479 
H 	 -2.875918 	 -2.394760 	 -1.276995 
H 	 -3.370749 	 -2.671474 	 -2.661291 
H 	 -5.814887 	 -6.809265 	 2.989268 
H 	 -5.804867 	 7.294982 	 1.644870 
H 	 -5.467825 	 -6.811378 	 -3.850135 
H 	 -4.909679 	 6.751590 	 -4.441220 
H 	 -4.184948 	 -6.200426 	 -6.949197 
H 	 -5.042230 	 -5.072777 	 -6.339107 
H 	 5.763324 	 -5.756371 	 -4.754026 
H 	 6.342321 	 -7.206013 	 -4.970943 
H 	 0.638735 	 1.499480 	 0.005676 
H 	 1.389316 	 2.522642 	 -0.905670 
H 	 4.301586 	 6.413061 	 -5.947564 
H 	 3.380815 	 5.227384 	 -6.185813 
H 	 -1.124259 	 -0.206765 	 -3.067038 
H 	 -1.408005 	 -1.630038 	 -2.444925 
H 	 -1.711741 	 4.402263 	 0.049471 
H 	 -2.559954 	 5.329301 	 0.938957 
H 	 -0.101267 	 -0.754575 	 0.053561 
H 	 0.247838 	 -0.689931 	 -1.457670 
H 	 6.626696 	 -1.146524 	 -7.435174 
H 	 -6.763523 	 -1.329498 	 -7.472025 
H 	 3.852767 	 -1.171647 	 3.184475 
H 	 3.614206 	 -0.363047 	 1.965357 
H 	 -4.712856 	 -0.715158 	 -3.182917 
H 	 -5.398331 	 -2.153964 	 -3.581808 
H 	 5.429029 	 2.858139 	 -6.678827 
H 	 6.403783 	 1.753703 	 -6.325831 
H 	 -2.334665 	 6.430444 	 2.829299 
H 	 -3.779756 	 6.864636 	 2.440023 
H 	 -4.892583 	 3.333031 	 5.462105 
H 	 -3.451346 	 3.595284 	 6.001829 
H 	 6.178193 	 1.959869 	 1.785672 
H 	 6.525793 	 3.423572 	 2.400044 
H 	 -1.830458 	 6.664499 	 -6.081445 
O 	 4.463363 	 -5.935518 	 3.510359 
O 	 1.960892 	 -5.392435 	 -0.427410 
O 	 -0.130145 	 6.460359 	 2.770422 
O 	 -2.911536 	 -1.971558 	 -5.918370 
O 	 -1.340365 	 1.307534 	 -5.101059 
O 	 1.966864 	 -3.218584 	 1.289122 
O 	 6.078241 	 -2.721776 	 -0.094612 
O 	 6.249220 	 -3.374103 	 3.013704 
O 	 6.578563 	 0.879259 	 -1.608043 
O 	 -5.056049 	 -5.364367 	 -2.532754 
O 	 2.300263 	 7.523046 	 2.242432 
O 	 4.567823 	 5.655912 	 1.734220 
O 	 -7.327797 	 -6.555707 	 4.184678 
O 	 -4.485844 	 5.808045 	 -6.953095 
O 	 -2.819460 	 -2.819131 	 6.273070 
O 	 6.998999 	 6.789873 	 6.787853 
O 	 -4.501961 	 -4.753520 	 5.059344 
O 	 3.522724 	 -3.081982 	 3.598572 
O 	 -3.603529 	 3.990756 	 -4.828592 
O 	 4.216967 	 3.824875 	 -3.419959 
O 	 4.962814 	 -2.278813 	 -4.883113 
O 	 0.015965 	 -0.762704 	 -6.788935 
O 	 0.609868 	 4.770096 	 -5.909695 
O 	 -6.981864 	 -1.665399 	 -2.135540 
O 	 -0.492484 	 -3.104463 	 4.591566 
O 	 2.708736 	 3.370291 	 2.505331 
O 	 5.137171 	 -4.786382 	 -3.034837 
O 	 -2.748469 	 -0.369304 	 0.098651 
O 	 -7.182548 	 0.749176 	 -4.965465 
O 	 6.548591 	 -0.014559 	 1.609932 
O 	 -2.293474 	 1.915917 	 1.887237 
O 	 1.409908 	 5.336696 	 5.054681 
O 	 -6.766323 	 4.137233 	 -6.160574 
O 	 -3.413344 	 -1.671115 	 3.448314 
O 	 4.919432 	 -0.296976 	 6.860732 
O 	 2.171974 	 3.146301 	 6.803136 
O 	 -5.280493 	 -1.661539 	 0.241273 
O 	 -1.485624 	 1.961385 	 -1.632001 
O 	 1.988791 	 6.664194 	 -4.473761 
O 	 7.106022 	 -4.149228 	 5.751307 
O 	 1.504507 	 2.619309 	 -3.921316 
O 	 3.054860 	 -2.732089 	 -6.752895 
O 	 -6.483375 	 -4.033392 	 -5.214765 
O 	 -5.268972 	 -3.628088 	 2.576138 
O 	 -1.351938 	 1.085121 	 6.776139 
O 	 -4.257731 	 6.907898 	 5.287209 
O 	 -0.317486 	 -3.740725 	 -6.467176 
O 	 6.645688 	 5.110799 	 -0.760903 
O 	 1.426728 	 0.910996 	 3.216327 
O 	 -2.064927 	 4.101172 	 4.575133 
O 	 -7.103270 	 2.415205 	 5.508336 
O 	 7.011946 	 4.557580 	 3.721431 
O 	 -7.006907 	 -5.314205 	 -0.809527 
O 	 -2.366496 	 -5.724501 	 3.163480 
O 	 1.407910 	 7.250391 	 7.130039 
O 	 -1.382348 	 4.619218 	 -3.355146 
O 	 -5.273758 	 3.347602 	 -0.373046 
O 	 2.402547 	 -4.792962 	 -4.330097 
O 	 -3.043177 	 0.870934 	 4.469486 
O 	 3.413193 	 -0.176931 	 0.087248 
O 	 -1.593485 	 -3.120701 	 1.328952 
O 	 -2.795995 	 -5.369949 	 -4.105847 
O 	 -0.251588 	 3.942946 	 1.845421 
O 	 -3.084598 	 6.810165 	 -1.925615 
O 	 4.529170 	 5.942968 	 5.488641 
O 	 -4.262303 	 1.319800 	 -5.774156 
O 	 -0.586063 	 -0.892909 	 2.570575 
O 	 3.774024 	 7.473671 	 -1.712288 
O 	 -6.597982 	 2.849681 	 -2.974574 
O 	 -6.748208 	 -0.941914 	 4.372346 
O 	 -5.340099 	 0.989356 	 2.016189 
O 	 0.105982 	 -4.801453 	 -2.338069 
O 	 4.120545 	 -6.488865 	 7.068404 
O 	 -1.429519 	 6.595003 	 5.761491 
O 	 4.200666 	 2.506302 	 4.954761 
O 	 -4.223927 	 0.832141 	 -2.103272 
O 	 1.096565 	 -5.672928 	 4.467244 
O 	 -4.939266 	 -0.690515 	 7.063910 
O 	 -5.095737 	 3.645148 	 2.871720 
O 	 4.884082 	 0.467870 	 -4.303030 
O 	 1.966222 	 -0.777102 	 -3.660408 
O 	 2.573828 	 4.899834 	 -1.167935 
O 	 -5.632297 	 6.740438 	 -0.558481 
O 	 3.254763 	 -2.688459 	 -1.924230 
O 	 2.291031 	 0.394537 	 -7.010832 
O 	 1.812758 	 -1.414808 	 5.484644 
O 	 -1.240457 	 -5.746720 	 6.921977 
O 	 5.344704 	 -5.928156 	 0.632790 
O 	 -0.185664 	 6.438962 	 -0.852232 
O 	 -1.002035 	 -5.893771 	 0.488683 
O 	 7.025154 	 6.095800 	 -3.609326 
O 	 4.443378 	 3.079039 	 -0.405763 
O 	 -0.284575 	 -7.124731 	 -4.372671 
O 	 -2.692934 	 -2.993496 	 -2.008863 
O 	 -5.375887 	 -6.853002 	 2.104991 
O 	 -5.703297 	 7.340030 	 -4.471645 
O 	 -4.184047 	 -5.233289 	 -6.748979 
O 	 6.159384 	 -6.366271 	 -5.409137 
O 	 1.295806 	 2.236117 	 0.031025 
O 	 4.215255 	 5.466516 	 -5.742224 
O 	 -0.714109 	 -1.069272 	 -2.812531 
O 	 -2.633571 	 4.704238 	 0.193680 
O 	 0.610537 	 -0.505303 	 -0.569091 
O 	 7.342541 	 -1.580245 	 -6.925977 
O 	 3.997552 	 -0.257998 	 2.862424 
O 	 -4.652526 	 -1.530094 	 -3.735118 
O 	 5.917834 	 2.135922 	 -7.096363 
O 	 -3.138111 	 6.118663 	 2.352039 
O 	 -4.334073 	 3.314138 	 6.286087 
O 	 6.485145 	 2.871149 	 1.579014 
O 	 -2.373380 	 7.115320 	 -6.723647 
K 	 -4.034893 	 -4.885679 	 0.311982 
