333
conformation = 50
H 	 -2.095622 	 3.934896 	 7.303260 
H 	 -3.389268 	 4.814463 	 7.223975 
H 	 -5.606070 	 4.022372 	 3.658227 
H 	 -4.677791 	 4.612144 	 2.469534 
H 	 7.117997 	 1.543609 	 6.129751 
H 	 6.723334 	 2.790747 	 5.243059 
H 	 4.652808 	 6.973553 	 -2.805553 
H 	 3.648860 	 -6.854566 	 -2.235804 
H 	 5.869755 	 -2.885156 	 -1.775089 
H 	 6.321067 	 -4.050535 	 -2.677619 
H 	 -5.741500 	 6.477126 	 3.966700 
H 	 -6.126659 	 -6.895885 	 3.749528 
H 	 -2.959618 	 -7.329168 	 2.301494 
H 	 -2.142738 	 7.026667 	 3.534865 
H 	 -0.393504 	 6.460790 	 5.605869 
H 	 -1.705871 	 7.253467 	 6.007900 
H 	 -1.848911 	 -3.432580 	 0.640209 
H 	 -2.176272 	 -4.517860 	 1.767617 
H 	 1.730116 	 5.397877 	 0.004847 
H 	 3.143820 	 4.655675 	 0.006726 
H 	 -4.987404 	 2.287596 	 5.044196 
H 	 -5.818982 	 3.409226 	 5.514841 
H 	 -3.008796 	 1.070283 	 6.239522 
H 	 -4.053657 	 0.387864 	 5.333023 
H 	 0.035918 	 4.408779 	 -7.293973 
H 	 -0.000026 	 2.914137 	 -6.759429 
H 	 3.580870 	 1.376113 	 -3.887716 
H 	 2.787504 	 0.043133 	 -4.452746 
H 	 4.057615 	 -7.327614 	 -4.737658 
H 	 4.269156 	 -7.284925 	 -6.226797 
H 	 -0.975177 	 2.466292 	 -4.500868 
H 	 -0.329040 	 1.134856 	 -4.504661 
H 	 2.327602 	 3.829737 	 -6.884354 
H 	 2.377375 	 4.968757 	 -5.807193 
H 	 -4.660185 	 7.400914 	 -7.289836 
H 	 -5.059821 	 6.799094 	 6.260202 
H 	 2.849284 	 -0.443137 	 -1.909534 
H 	 2.897304 	 -1.708673 	 -0.901913 
H 	 -2.889560 	 -0.680080 	 -0.801616 
H 	 -4.232134 	 -1.005791 	 -0.228906 
H 	 -2.808694 	 -7.014986 	 -1.918227 
H 	 -2.604002 	 6.705840 	 -0.945759 
H 	 -7.539159 	 -6.159294 	 -4.510548 
H 	 6.604110 	 -6.450579 	 -3.275129 
H 	 -7.366968 	 -0.887300 	 -3.067863 
H 	 -6.959053 	 0.531167 	 -2.835569 
H 	 -0.625549 	 -7.087849 	 0.551552 
H 	 -0.476439 	 -5.580057 	 0.604702 
H 	 -7.717082 	 -7.111379 	 -5.989150 
H 	 -7.727964 	 -7.410135 	 -7.497054 
H 	 -5.530604 	 -2.172164 	 6.172463 
H 	 -4.715065 	 -2.231188 	 4.748993 
H 	 -3.404064 	 4.240996 	 -0.958289 
H 	 -2.375198 	 4.330354 	 0.242888 
H 	 3.312033 	 -5.383023 	 3.259984 
H 	 4.794348 	 -5.607605 	 3.269629 
H 	 0.965561 	 -4.092797 	 -2.763823 
H 	 0.318175 	 -3.188048 	 -1.600971 
H 	 -0.427911 	 -4.634805 	 4.075187 
H 	 -1.538268 	 -5.232225 	 4.993945 
H 	 5.187906 	 -2.307064 	 4.414916 
H 	 4.544634 	 -3.679695 	 4.099889 
H 	 -7.181149 	 0.663464 	 -6.559133 
H 	 -5.749843 	 0.181802 	 -7.001611 
H 	 -0.142984 	 0.020147 	 -2.358434 
H 	 0.938907 	 -0.391559 	 -3.496569 
H 	 3.642616 	 -5.859685 	 6.003465 
H 	 4.399079 	 -6.905092 	 5.088902 
H 	 -2.715166 	 -4.958556 	 -6.444945 
H 	 -2.225410 	 -4.005954 	 -5.357927 
H 	 -6.384043 	 -1.019257 	 -5.540963 
H 	 -5.234905 	 -1.856176 	 -5.520654 
H 	 1.200188 	 -6.679331 	 2.252192 
H 	 1.316168 	 -6.856469 	 3.800686 
H 	 5.987087 	 -1.615294 	 0.670422 
H 	 5.251242 	 -3.014296 	 0.634045 
H 	 -4.767607 	 1.158527 	 -0.813347 
H 	 -6.107114 	 1.918522 	 -0.836865 
H 	 -0.766357 	 6.562970 	 -5.410297 
H 	 -0.775182 	 6.547130 	 -6.919530 
H 	 -5.695310 	 -3.049456 	 -0.655344 
H 	 -6.809582 	 -1.997910 	 -0.711160 
H 	 -4.997956 	 -6.452833 	 -3.252626 
H 	 -4.954620 	 6.945639 	 -2.897615 
H 	 0.110884 	 6.784599 	 -3.068178 
H 	 -0.274440 	 5.340248 	 -2.907305 
H 	 1.691490 	 6.018575 	 6.841395 
H 	 1.998082 	 7.281216 	 5.987019 
H 	 5.703311 	 -2.539630 	 -5.980954 
H 	 5.940579 	 -3.177661 	 -4.611108 
H 	 2.558003 	 1.370271 	 7.324688 
H 	 2.249454 	 1.438854 	 -6.009894 
H 	 6.507597 	 5.694046 	 -3.854266 
H 	 -7.339767 	 5.827325 	 -2.647684 
H 	 -1.646726 	 0.227323 	 2.893074 
H 	 -0.676109 	 1.227910 	 2.154668 
H 	 -6.516286 	 -4.707053 	 -7.460576 
H 	 -5.382897 	 -4.298150 	 6.631362 
H 	 5.354573 	 -0.558325 	 -7.254234 
H 	 6.181263 	 -1.577833 	 6.821566 
H 	 -0.464160 	 -2.323095 	 -6.329450 
H 	 -0.120050 	 -3.807352 	 -6.368041 
H 	 -0.561734 	 0.886511 	 -7.211591 
H 	 0.364420 	 0.041747 	 6.784091 
H 	 -1.081227 	 6.035153 	 2.182775 
H 	 -1.360590 	 4.688094 	 2.921001 
H 	 5.573790 	 4.663083 	 6.142811 
H 	 4.311700 	 4.943545 	 6.956452 
H 	 -5.451286 	 3.190663 	 -4.653941 
H 	 -6.182069 	 2.392802 	 -3.619631 
H 	 4.908539 	 -0.258119 	 -0.528934 
H 	 6.183659 	 0.146761 	 -1.278553 
H 	 2.695937 	 -1.263340 	 2.523385 
H 	 1.340219 	 -1.436462 	 3.215387 
H 	 -6.202319 	 5.320677 	 -0.881695 
H 	 -6.002989 	 4.146322 	 -1.749086 
H 	 4.398115 	 -3.480482 	 6.685817 
H 	 4.219555 	 -4.294802 	 -6.851155 
H 	 -4.264714 	 -5.310315 	 2.278544 
H 	 -4.177274 	 -3.770566 	 2.586617 
H 	 6.535083 	 7.437377 	 3.748562 
H 	 6.150897 	 6.044746 	 3.462481 
H 	 4.862696 	 5.684193 	 -1.320265 
H 	 4.335195 	 4.556318 	 -2.234612 
H 	 6.588985 	 0.568142 	 4.625484 
H 	 7.099937 	 -0.840630 	 4.125153 
H 	 4.627175 	 2.990941 	 0.471511 
H 	 4.377343 	 1.609754 	 0.980823 
H 	 -2.315255 	 0.476641 	 -6.131148 
H 	 -3.707803 	 0.484459 	 -5.616949 
H 	 3.598708 	 -3.653205 	 -3.763173 
H 	 3.647815 	 -4.421534 	 -2.461091 
H 	 -7.498432 	 -5.417061 	 5.429944 
H 	 6.251160 	 -4.519600 	 4.969439 
H 	 -2.823798 	 1.782689 	 1.430109 
H 	 -4.262606 	 1.844535 	 1.777044 
H 	 0.585644 	 -1.893191 	 0.900739 
H 	 0.089471 	 -1.162018 	 -0.258948 
H 	 0.101115 	 -6.052169 	 6.908137 
H 	 1.469271 	 -5.315016 	 6.952834 
H 	 1.219308 	 -3.853172 	 5.351458 
H 	 2.471256 	 -3.998620 	 6.121018 
H 	 6.153857 	 6.173297 	 0.651514 
H 	 -7.654892 	 5.412012 	 1.496933 
H 	 -2.682326 	 4.363582 	 -4.800679 
H 	 -3.270986 	 3.749444 	 -6.055881 
H 	 5.386282 	 2.015212 	 -6.543101 
H 	 5.560549 	 1.750396 	 -5.060296 
H 	 -3.631692 	 -2.847585 	 7.338032 
H 	 -3.305786 	 -1.678043 	 -6.567937 
H 	 2.095308 	 -3.317348 	 0.353603 
H 	 3.020321 	 -4.252790 	 1.145398 
H 	 -6.940022 	 3.420456 	 -6.561411 
H 	 -6.653052 	 4.898184 	 -6.886907 
H 	 2.413820 	 -5.854489 	 -5.305762 
H 	 1.869550 	 -4.412591 	 -5.439566 
H 	 2.781662 	 -0.345541 	 5.910597 
H 	 2.299906 	 -1.820730 	 5.694961 
H 	 -2.227159 	 -3.801210 	 -2.096181 
H 	 -3.390150 	 -4.481899 	 -1.363624 
H 	 -6.305429 	 -5.408234 	 -0.567561 
H 	 -5.892655 	 -4.664790 	 -1.937276 
H 	 -5.968622 	 -0.223918 	 1.279618 
H 	 -5.178753 	 -0.247422 	 2.594121 
H 	 0.774404 	 3.064504 	 1.973359 
H 	 1.740229 	 1.860913 	 2.102317 
H 	 -5.482229 	 7.040093 	 1.335851 
H 	 -4.315893 	 7.479211 	 0.422212 
H 	 -4.368722 	 -3.478007 	 -3.350425 
H 	 -5.790259 	 -3.749612 	 -3.849833 
H 	 -4.911452 	 -5.557096 	 -5.476061 
H 	 -5.433894 	 -6.890535 	 -5.307018 
H 	 5.370874 	 3.812037 	 -4.944239 
H 	 4.779192 	 5.040299 	 -5.582215 
H 	 -2.794049 	 3.295710 	 4.849832 
H 	 -2.662196 	 2.703682 	 3.439191 
H 	 6.823189 	 2.300116 	 1.166545 
H 	 -7.114531 	 1.638079 	 2.212411 
H 	 6.304442 	 3.172087 	 3.199304 
H 	 5.264381 	 3.596379 	 4.300859 
H 	 -1.297941 	 0.585044 	 -0.012410 
H 	 -0.230598 	 1.373815 	 -0.901601 
H 	 -3.683997 	 -1.451770 	 1.978612 
H 	 -2.984362 	 -1.386988 	 3.386408 
H 	 6.859400 	 3.966029 	 -0.579172 
H 	 6.372330 	 3.286853 	 -1.861292 
H 	 4.684981 	 -7.372616 	 1.646753 
H 	 3.797056 	 7.477627 	 0.373386 
H 	 1.002447 	 3.289862 	 5.813558 
H 	 1.184824 	 2.766405 	 4.410725 
H 	 1.802728 	 3.171719 	 -1.327158 
H 	 1.977695 	 2.251200 	 -2.563996 
H 	 3.103314 	 3.977669 	 -3.550827 
H 	 1.949541 	 5.029512 	 -3.518497 
H 	 -1.736246 	 3.789501 	 -2.235797 
H 	 -0.293299 	 3.439689 	 -2.554529 
H 	 -6.435700 	 -3.151427 	 3.355658 
H 	 -7.193513 	 -2.705762 	 2.095422 
H 	 -2.266554 	 1.000052 	 -2.975700 
H 	 -3.740085 	 0.829430 	 -2.883855 
H 	 5.986622 	 -4.909471 	 -0.515668 
H 	 5.738122 	 -6.404365 	 -0.134519 
H 	 4.978960 	 -0.784489 	 2.197668 
H 	 4.551612 	 -0.101515 	 3.473912 
H 	 -7.631049 	 -5.308559 	 3.314995 
H 	 -7.237796 	 -5.697773 	 1.840432 
H 	 -1.428777 	 -6.472352 	 -4.651525 
H 	 0.049894 	 -6.205186 	 -4.646440 
H 	 -4.039463 	 -6.088541 	 5.850982 
H 	 -3.778700 	 -5.181032 	 4.621816 
H 	 3.009200 	 -5.473697 	 -0.437457 
H 	 1.723157 	 -6.385562 	 -0.617455 
H 	 -2.409895 	 -1.261553 	 -4.328178 
H 	 -1.061744 	 -1.757329 	 -3.826211 
H 	 4.636926 	 1.591542 	 5.858085 
H 	 3.107977 	 1.943626 	 5.478297 
H 	 1.786105 	 -1.677150 	 -6.151693 
H 	 3.227177 	 -1.680898 	 -6.550074 
H 	 -1.692771 	 -2.759573 	 5.190273 
H 	 -1.424308 	 -1.343178 	 5.725924 
H 	 5.107752 	 1.868940 	 -2.946153 
O 	 -3.103075 	 3.859782 	 7.223793 
O 	 -5.477928 	 4.769655 	 3.009180 
O 	 6.367653 	 2.143986 	 5.855381 
O 	 4.464530 	 -6.986864 	 -2.769398 
O 	 6.684675 	 -3.367164 	 -2.053678 
O 	 -6.054092 	 7.291736 	 4.426666 
O 	 -2.077175 	 -7.297017 	 2.723058 
O 	 -1.362926 	 6.588417 	 5.364718 
O 	 -1.465241 	 -4.122645 	 1.233402 
O 	 2.210782 	 4.655412 	 0.359468 
O 	 -5.858000 	 2.730242 	 4.792719 
O 	 -3.580866 	 1.252589 	 5.460398 
O 	 -0.419367 	 3.541730 	 -7.433252 
O 	 2.737487 	 0.687512 	 -3.707513 
O 	 3.725817 	 7.122059 	 -5.566475 
O 	 -0.622350 	 1.841856 	 -5.158388 
O 	 2.529621 	 4.755948 	 -6.754189 
O 	 -4.272388 	 7.006766 	 6.800544 
O 	 2.981341 	 -0.730267 	 -0.976665 
O 	 -3.360803 	 -0.673846 	 0.052020 
O 	 -2.920283 	 -7.249237 	 -0.977805 
O 	 6.822629 	 -5.685553 	 -3.871808 
O 	 7.121376 	 -0.000679 	 -2.951762 
O 	 0.053244 	 -6.397444 	 0.418866 
O 	 6.766113 	 7.220891 	 -6.678911 
O 	 -4.834519 	 -1.768843 	 5.615666 
O 	 -2.516915 	 4.604830 	 -0.658005 
O 	 4.112447 	 -5.090596 	 2.781131 
O 	 0.167578 	 -3.972521 	 -2.204534 
O 	 -0.714375 	 -4.723591 	 4.995496 
O 	 5.143602 	 -3.228741 	 4.736633 
O 	 -6.700565 	 -0.009633 	 -7.126309 
O 	 0.010090 	 -0.214974 	 -3.305864 
O 	 3.533333 	 -6.517931 	 5.283597 
O 	 -2.052111 	 -4.904424 	 -5.726682 
O 	 -5.928248 	 -1.640704 	 -4.903575 
O 	 1.642613 	 -7.229536 	 2.968965 
O 	 6.107636 	 -2.575740 	 0.766504 
O 	 -5.338126 	 1.695836 	 -1.373662 
O 	 -1.248508 	 6.150943 	 -6.160956 
O 	 -5.854096 	 -2.079694 	 -0.852468 
O 	 -4.929600 	 -7.346637 	 -3.681037 
O 	 0.408430 	 5.997519 	 -2.567572 
O 	 1.464186 	 6.449183 	 5.979441 
O 	 5.678986 	 -3.390927 	 -5.518528 
O 	 2.131214 	 1.909555 	 -6.865619 
O 	 6.832441 	 6.229988 	 -3.125641 
O 	 -1.388254 	 0.589131 	 2.031838 
O 	 -6.355957 	 -4.091578 	 6.693674 
O 	 5.379154 	 -1.515244 	 7.354058 
O 	 0.284874 	 -2.948371 	 -6.587368 
O 	 -0.557901 	 0.322726 	 6.883641 
O 	 -0.772414 	 5.095243 	 2.253696 
O 	 4.609889 	 4.456005 	 6.183004 
O 	 -6.292808 	 2.710174 	 -4.538021 
O 	 5.861276 	 -0.034154 	 -0.355518 
O 	 1.733971 	 -1.278577 	 2.332668 
O 	 -5.782932 	 5.095215 	 -1.729865 
O 	 3.919677 	 -4.197438 	 7.137880 
O 	 -3.721328 	 -4.628575 	 2.731664 
O 	 5.724858 	 6.900003 	 3.658757 
O 	 4.536635 	 4.768590 	 -1.295963 
O 	 6.527570 	 -0.378209 	 4.772430 
O 	 3.877786 	 2.410622 	 0.693801 
O 	 -3.225327 	 0.307311 	 -6.445164 
O 	 3.791361 	 -3.528767 	 -2.804234 
O 	 6.592874 	 -5.454808 	 4.849437 
O 	 -3.559601 	 2.466846 	 1.475451 
O 	 0.018829 	 -2.050146 	 0.122568 
O 	 0.745449 	 -5.653265 	 -7.396235 
O 	 2.132768 	 -4.120960 	 5.213492 
O 	 7.064652 	 5.831588 	 0.587783 
O 	 -3.391333 	 3.781972 	 -5.065060 
O 	 5.768169 	 1.350351 	 -5.943846 
O 	 -3.410872 	 -2.661884 	 -6.626543 
O 	 3.004558 	 -3.706083 	 0.331999 
O 	 -6.689055 	 4.023557 	 -7.282404 
O 	 2.243058 	 -5.030423 	 -4.763738 
O 	 1.978908 	 -0.930453 	 5.900444 
O 	 -3.000791 	 -3.594979 	 -1.580761 
O 	 -5.567889 	 -5.137568 	 -1.140607 
O 	 -5.618241 	 0.356506 	 1.960785 
O 	 0.956851 	 2.256641 	 2.488077 
O 	 -4.776007 	 -7.190889 	 1.256028 
O 	 -4.909471 	 -4.177245 	 -3.753697 
O 	 -5.535972 	 -6.145821 	 -5.989837 
O 	 5.670483 	 4.604267 	 -5.511163 
O 	 -2.396475 	 3.491093 	 3.984996 
O 	 6.876862 	 2.034814 	 2.099941 
O 	 5.868883 	 3.955056 	 3.630140 
O 	 -0.954588 	 0.714488 	 -0.929452 
O 	 -3.744509 	 -1.755701 	 2.895928 
O 	 7.060554 	 3.242523 	 -1.156341 
O 	 4.498421 	 6.985451 	 0.842198 
O 	 1.714339 	 3.165478 	 5.134870 
O 	 1.288949 	 2.758434 	 -2.063607 
O 	 2.801324 	 4.830202 	 -3.909577 
O 	 -1.142187 	 3.595241 	 -2.987783 
O 	 -6.794136 	 -2.367038 	 2.918525 
O 	 -2.945062 	 0.345394 	 -3.218299 
O 	 6.463314 	 -5.732289 	 -0.316789 
O 	 4.231448 	 -0.279393 	 2.537871 
O 	 -6.872503 	 -5.433236 	 2.700842 
O 	 -0.586186 	 -6.897828 	 -4.369749 
O 	 -3.639817 	 -5.217325 	 5.623964 
O 	 2.720866 	 -6.370049 	 -0.738413 
O 	 -1.778471 	 -2.013775 	 -4.423500 
O 	 3.794026 	 1.213546 	 5.497430 
O 	 2.601378 	 -1.192779 	 -5.940638 
O 	 -1.727314 	 -1.829789 	 4.880187 
O 	 4.489803 	 2.334320 	 -3.553695 
K 	 2.753394 	 5.467648 	 3.282791 
