333
conformation = 39
H 	 -7.593456 	 -7.412426 	 -7.383359 
H 	 6.276526 	 -6.419986 	 7.118706 
H 	 4.131557 	 7.444523 	 3.715712 
H 	 4.917614 	 -6.881751 	 2.505443 
H 	 1.920173 	 5.032852 	 7.160164 
H 	 2.520767 	 5.578838 	 5.988914 
H 	 -0.003367 	 -4.022808 	 -2.454016 
H 	 -1.171312 	 -3.222947 	 -1.781464 
H 	 0.229765 	 -0.164015 	 -2.561672 
H 	 1.564810 	 -0.733399 	 -1.972740 
H 	 3.927655 	 -5.112137 	 4.122522 
H 	 3.800529 	 -3.614923 	 3.816229 
H 	 6.920796 	 -3.689246 	 2.780233 
H 	 -7.092414 	 -3.967572 	 4.013429 
H 	 -5.715113 	 -4.357907 	 6.149557 
H 	 -7.247501 	 -4.015338 	 6.348026 
H 	 -6.054912 	 0.175113 	 1.142090 
H 	 -6.965236 	 -0.926520 	 0.770234 
H 	 -3.695716 	 -6.197792 	 0.234854 
H 	 -2.207601 	 -6.473734 	 0.187882 
H 	 4.930111 	 5.577747 	 5.327621 
H 	 4.403447 	 6.858395 	 5.994896 
H 	 6.969991 	 4.469294 	 6.041047 
H 	 5.909503 	 3.482914 	 5.759246 
H 	 -5.044345 	 -6.880578 	 -7.073852 
H 	 -5.060296 	 6.483984 	 -6.622685 
H 	 -1.766907 	 4.990326 	 -3.564186 
H 	 -2.185814 	 3.581525 	 -4.268193 
H 	 -1.187103 	 -4.164282 	 -4.253630 
H 	 -0.259484 	 -3.862073 	 -5.442256 
H 	 -6.308720 	 6.020635 	 -4.081461 
H 	 -5.396559 	 4.782921 	 -4.354524 
H 	 -2.690357 	 -7.142734 	 -5.896814 
H 	 -2.315195 	 -5.742005 	 -5.877940 
H 	 5.019393 	 -3.992021 	 -7.212258 
H 	 4.916840 	 -4.399327 	 6.152341 
H 	 -2.279179 	 3.293722 	 -1.826323 
H 	 -1.944686 	 1.808847 	 -1.737036 
H 	 6.841850 	 3.214422 	 -0.496785 
H 	 5.831720 	 2.068698 	 -0.351241 
H 	 -7.220715 	 -3.851806 	 -1.180787 
H 	 6.313895 	 -4.369771 	 -0.767847 
H 	 2.811727 	 -1.827007 	 -3.734115 
H 	 1.662137 	 -2.825408 	 -3.997093 
H 	 2.486451 	 2.794050 	 -3.338653 
H 	 3.180824 	 3.780389 	 -2.342687 
H 	 -5.756830 	 -3.187350 	 0.738989 
H 	 -4.914255 	 -1.877297 	 1.124490 
H 	 2.532194 	 -3.683687 	 -6.521395 
H 	 1.411388 	 -3.818259 	 7.371477 
H 	 4.085478 	 2.091918 	 6.160523 
H 	 4.783370 	 1.791391 	 4.780803 
H 	 6.569170 	 -7.031949 	 -0.133991 
H 	 -7.163028 	 -6.316102 	 0.616418 
H 	 -1.509208 	 -2.011909 	 3.951562 
H 	 -0.103146 	 -2.247490 	 3.247315 
H 	 -4.450750 	 -1.014183 	 -2.395450 
H 	 -4.655143 	 0.089550 	 -1.305251 
H 	 -6.039634 	 -1.459449 	 4.020027 
H 	 -6.946026 	 -1.270455 	 5.238360 
H 	 0.749127 	 0.881669 	 4.904111 
H 	 -0.353249 	 -0.089209 	 4.339172 
H 	 2.619356 	 4.225626 	 -6.091204 
H 	 4.030582 	 4.153669 	 -6.636535 
H 	 -5.134743 	 3.367623 	 -2.147705 
H 	 -3.919652 	 3.225814 	 -3.056651 
H 	 -0.910524 	 -2.264297 	 6.839347 
H 	 -0.583911 	 -3.340821 	 5.762997 
H 	 7.097370 	 -1.475856 	 -6.045685 
H 	 -7.560411 	 -0.588723 	 -4.793522 
H 	 3.456769 	 1.478217 	 -5.461605 
H 	 4.930688 	 1.633468 	 -5.279062 
H 	 -3.937130 	 -3.242714 	 2.421342 
H 	 -3.829113 	 -2.716843 	 3.915262 
H 	 0.923783 	 1.654635 	 1.055550 
H 	 -0.108053 	 0.527841 	 1.232315 
H 	 4.789142 	 4.842569 	 -0.564882 
H 	 3.441753 	 5.513327 	 -0.749034 
H 	 -5.892409 	 -4.616464 	 -5.550920 
H 	 -6.370475 	 -5.092273 	 -6.971019 
H 	 3.947883 	 0.382641 	 -0.598654 
H 	 2.770701 	 1.144782 	 -1.336532 
H 	 5.950528 	 -4.016782 	 -3.146175 
H 	 4.642761 	 -4.653666 	 -3.485368 
H 	 -5.057678 	 -4.654860 	 -2.539742 
H 	 -5.277156 	 -6.165059 	 -2.339095 
H 	 -3.490079 	 -5.620706 	 6.844108 
H 	 -2.552825 	 -4.589167 	 6.255837 
H 	 0.691462 	 0.614318 	 -4.501645 
H 	 0.913896 	 -0.900850 	 -4.840720 
H 	 -1.659022 	 5.171498 	 -6.872600 
H 	 -2.638944 	 5.187011 	 -5.771464 
H 	 1.326129 	 -5.777736 	 -3.668169 
H 	 2.004799 	 -5.423943 	 -2.355426 
H 	 -7.028115 	 3.304220 	 2.464655 
H 	 -5.802511 	 3.985153 	 3.081104 
H 	 3.101835 	 -0.181768 	 7.414334 
H 	 4.222753 	 -0.805375 	 6.545610 
H 	 0.213061 	 3.417608 	 -6.613610 
H 	 0.200979 	 2.677610 	 6.931268 
H 	 -5.593134 	 0.917559 	 -5.427694 
H 	 -4.720390 	 -0.040564 	 -6.099091 
H 	 -5.439124 	 3.971780 	 6.377259 
H 	 -5.195121 	 2.937525 	 -7.369866 
H 	 -5.585993 	 -5.626529 	 2.850355 
H 	 -6.201187 	 -7.022398 	 2.755985 
H 	 -0.012043 	 7.384155 	 7.124603 
H 	 -1.294925 	 -6.780226 	 6.881317 
H 	 4.504046 	 6.582906 	 -4.247664 
H 	 3.200171 	 5.929648 	 -3.515819 
H 	 -0.144555 	 3.111331 	 -0.751676 
H 	 1.286630 	 3.505760 	 -1.009975 
H 	 -2.345340 	 2.083641 	 2.741721 
H 	 -3.698650 	 1.722028 	 3.436862 
H 	 3.497307 	 -6.165298 	 -0.537515 
H 	 3.981105 	 -7.277614 	 -1.481308 
H 	 -0.628419 	 0.310263 	 7.286421 
H 	 -0.895117 	 -0.420118 	 -6.312419 
H 	 4.769761 	 -1.882468 	 2.943737 
H 	 5.714082 	 -0.643072 	 3.136536 
H 	 1.098173 	 -3.802902 	 4.595444 
H 	 0.775918 	 -5.263372 	 4.175311 
H 	 -0.185720 	 -5.813514 	 -0.956568 
H 	 -0.800160 	 -6.787612 	 -1.980257 
H 	 1.799432 	 3.580967 	 5.180099 
H 	 2.386219 	 2.175608 	 4.574520 
H 	 -1.101098 	 5.868670 	 0.144693 
H 	 -0.770883 	 4.717924 	 1.139690 
H 	 -7.331742 	 4.367063 	 -6.153467 
H 	 6.248887 	 4.871834 	 -5.483153 
H 	 -2.059812 	 -0.240660 	 -3.345941 
H 	 -2.046455 	 -0.545491 	 -1.918555 
H 	 2.248800 	 -1.614778 	 5.907240 
H 	 0.795335 	 -1.412448 	 5.601096 
H 	 6.789221 	 5.638637 	 1.757901 
H 	 5.262355 	 5.485821 	 2.002072 
H 	 -4.430537 	 1.909222 	 1.201206 
H 	 -5.201616 	 2.609614 	 0.065845 
H 	 -5.091091 	 -2.024671 	 6.918144 
H 	 -3.885896 	 -2.771586 	 -7.375853 
H 	 -4.187631 	 -0.349260 	 5.846090 
H 	 -2.723620 	 -0.875029 	 6.130125 
H 	 1.459660 	 -5.123173 	 1.182363 
H 	 2.510870 	 -6.178062 	 1.551507 
H 	 6.536639 	 7.481193 	 -4.077692 
H 	 6.151815 	 7.449334 	 -5.579200 
H 	 0.981169 	 5.826498 	 -6.128978 
H 	 -0.000790 	 5.295953 	 -5.072443 
H 	 6.135556 	 1.483772 	 -7.317850 
H 	 7.000511 	 1.487487 	 -6.087265 
H 	 -2.732541 	 0.366366 	 0.782711 
H 	 -2.422445 	 -0.837819 	 1.729122 
H 	 3.549970 	 -7.243745 	 -6.278638 
H 	 2.825944 	 -6.302651 	 -7.221648 
H 	 -2.178214 	 -2.601324 	 -5.040319 
H 	 -3.275419 	 -1.699885 	 -5.420253 
H 	 -2.434123 	 2.998311 	 6.169335 
H 	 -2.817007 	 1.472886 	 5.854646 
H 	 -7.173246 	 -0.810693 	 -1.671100 
H 	 6.655988 	 -1.215541 	 -0.592618 
H 	 3.127539 	 -2.233376 	 -0.680600 
H 	 4.583584 	 -2.196713 	 -1.297860 
H 	 4.226773 	 3.350543 	 1.343229 
H 	 5.008806 	 3.463300 	 2.650617 
H 	 -4.026875 	 6.371890 	 2.441428 
H 	 -3.026991 	 5.230882 	 2.362356 
H 	 4.498122 	 -4.388683 	 1.559936 
H 	 5.102896 	 -3.303115 	 0.580516 
H 	 5.254864 	 -0.945276 	 -3.319358 
H 	 4.366214 	 0.236154 	 -3.889255 
H 	 3.465716 	 -1.916617 	 -5.479570 
H 	 4.105487 	 -3.169125 	 -5.115621 
H 	 0.224238 	 7.346626 	 -4.431027 
H 	 0.105289 	 -6.468305 	 -5.578983 
H 	 -7.540942 	 -7.374984 	 4.764033 
H 	 6.624670 	 6.639831 	 3.719195 
H 	 1.468580 	 4.653893 	 1.614411 
H 	 2.833136 	 4.729566 	 2.410959 
H 	 1.399949 	 7.104665 	 3.170987 
H 	 0.965361 	 7.122652 	 4.613444 
H 	 -5.842595 	 4.247759 	 0.627077 
H 	 -5.237002 	 5.033120 	 -0.482485 
H 	 6.461545 	 1.372371 	 2.143243 
H 	 7.037806 	 1.726822 	 3.577528 
H 	 1.182957 	 7.208432 	 -0.520518 
H 	 1.430376 	 6.499522 	 -1.912749 
H 	 -0.618905 	 -3.736657 	 1.784751 
H 	 -1.600260 	 -3.913213 	 0.661785 
H 	 -4.055659 	 6.705549 	 6.181007 
H 	 -3.716283 	 6.364549 	 4.701659 
H 	 -3.255725 	 6.661839 	 -0.797512 
H 	 -3.008445 	 5.978995 	 -2.166661 
H 	 -2.274453 	 7.360376 	 -3.303290 
H 	 -3.093267 	 -6.299491 	 -3.229290 
H 	 -7.013625 	 -7.273146 	 -1.672043 
H 	 -5.705515 	 6.709667 	 -1.966306 
H 	 3.213831 	 0.183549 	 3.001035 
H 	 2.761241 	 1.592268 	 2.543869 
H 	 6.509081 	 4.977006 	 -2.283478 
H 	 5.381393 	 4.244610 	 -2.994052 
H 	 0.853300 	 -1.588973 	 -0.157891 
H 	 0.754503 	 -3.161894 	 -0.048621 
H 	 0.155004 	 3.047048 	 3.787772 
H 	 -1.182479 	 3.716847 	 3.889330 
H 	 2.283325 	 -1.783323 	 3.564428 
H 	 2.190703 	 -1.832314 	 1.994469 
H 	 -6.305607 	 -2.412802 	 -4.262650 
H 	 -4.930721 	 -2.993599 	 -4.316081 
H 	 5.746164 	 -2.554136 	 6.273389 
H 	 5.729991 	 -1.835533 	 4.942732 
H 	 -2.453722 	 -1.900679 	 -0.098253 
H 	 -3.401522 	 -3.208910 	 -0.336554 
H 	 -6.884883 	 2.105567 	 -4.010324 
H 	 -6.261914 	 1.037673 	 -3.192553 
H 	 -0.439625 	 5.397787 	 5.925891 
H 	 -1.938294 	 5.525743 	 5.809315 
H 	 -3.160778 	 1.661924 	 -5.610694 
H 	 -1.937139 	 2.276505 	 -6.444572 
H 	 -5.980234 	 1.059871 	 4.705243 
H 	 -6.482430 	 2.349161 	 5.556333 
H 	 0.153580 	 5.395848 	 -3.027829 
O 	 6.460247 	 -7.377996 	 7.031113 
O 	 4.140480 	 -6.693148 	 3.092366 
O 	 1.617161 	 5.316927 	 6.259416 
O 	 -0.725999 	 -3.406537 	 -2.640272 
O 	 0.968431 	 0.047918 	 -1.947488 
O 	 3.914922 	 -4.224372 	 4.579879 
O 	 -7.045701 	 -3.841026 	 3.034102 
O 	 -6.616180 	 -4.770672 	 6.179701 
O 	 -6.500481 	 -0.619232 	 1.572567 
O 	 -3.032612 	 -6.676334 	 0.733864 
O 	 4.180741 	 6.195707 	 5.314920 
O 	 6.335809 	 4.249038 	 5.311989 
O 	 -5.284012 	 7.111401 	 -7.377123 
O 	 -2.458127 	 4.263434 	 -3.584166 
O 	 -1.159150 	 -4.225897 	 -5.254577 
O 	 -5.899957 	 5.519042 	 -4.789330 
O 	 -2.586285 	 -6.432887 	 -6.535943 
O 	 5.504390 	 -4.420863 	 6.966708 
O 	 -1.783960 	 2.666970 	 -1.239890 
O 	 6.387344 	 2.674186 	 0.160807 
O 	 6.742325 	 -3.632949 	 -1.293159 
O 	 1.887215 	 -2.022402 	 -3.504486 
O 	 2.316124 	 3.429564 	 -2.613526 
O 	 -4.865103 	 -2.875106 	 1.012916 
O 	 1.754423 	 -4.274134 	 -6.745978 
O 	 4.973787 	 2.056197 	 5.720202 
O 	 7.195168 	 -6.236099 	 -0.185778 
O 	 -0.889604 	 -1.679984 	 3.265456 
O 	 -5.159507 	 -0.617981 	 -1.816700 
O 	 -6.002128 	 -1.264547 	 4.962331 
O 	 -0.132049 	 0.541304 	 5.055154 
O 	 3.121336 	 3.844716 	 -6.874013 
O 	 -4.854218 	 2.901143 	 -2.989865 
O 	 -1.322425 	 -2.834972 	 6.150670 
O 	 7.269687 	 -1.514521 	 -5.085459 
O 	 4.110568 	 1.693958 	 -4.745676 
O 	 -3.369757 	 -3.252928 	 3.253831 
O 	 0.820650 	 0.740270 	 1.383751 
O 	 4.262318 	 5.304777 	 -1.221826 
O 	 -5.994436 	 -5.409249 	 -6.107203 
O 	 3.520028 	 1.254470 	 -0.735596 
O 	 5.057904 	 -3.772146 	 -3.508060 
O 	 -4.598736 	 -5.437479 	 -2.188060 
O 	 -3.348222 	 -5.105254 	 6.024335 
O 	 0.437684 	 -0.084048 	 -5.105512 
O 	 -2.467620 	 5.701145 	 -6.599506 
O 	 1.518623 	 -4.974819 	 -3.084460 
O 	 -6.192383 	 3.795958 	 2.232323 
O 	 3.270643 	 -0.599418 	 6.576525 
O 	 0.031804 	 2.517280 	 -7.022899 
O 	 -5.020045 	 0.860205 	 -6.265479 
O 	 -5.880359 	 3.459793 	 7.080841 
O 	 -5.356849 	 -6.546869 	 2.511624 
O 	 -0.458806 	 -7.009831 	 6.441195 
O 	 3.612115 	 6.183453 	 -4.372007 
O 	 0.616411 	 3.496024 	 -0.268447 
O 	 -3.339379 	 2.250866 	 2.695513 
O 	 4.155392 	 -6.360199 	 -1.221735 
O 	 -0.997729 	 -0.521156 	 -7.266913 
O 	 5.685867 	 -1.621281 	 3.182918 
O 	 0.348525 	 -4.407530 	 4.410812 
O 	 -0.521857 	 -6.719271 	 -1.045758 
O 	 1.602323 	 2.703007 	 4.824072 
O 	 -1.026793 	 5.670253 	 1.087259 
O 	 6.595563 	 4.283871 	 -6.158468 
O 	 -1.689438 	 0.145770 	 -2.500710 
O 	 1.458762 	 -2.143007 	 5.589061 
O 	 5.924050 	 6.127663 	 1.660628 
O 	 -4.860904 	 1.748630 	 0.342834 
O 	 -4.612745 	 -2.144819 	 -7.141817 
O 	 -3.326746 	 -0.572203 	 5.415700 
O 	 1.889866 	 -5.896469 	 0.783399 
O 	 5.982381 	 7.057251 	 -4.703265 
O 	 0.537417 	 4.990665 	 -5.870078 
O 	 6.240226 	 0.999247 	 -6.461824 
O 	 -2.251261 	 -0.483468 	 0.827451 
O 	 3.039303 	 -7.238139 	 -7.108931 
O 	 -2.794612 	 -1.950395 	 -4.599095 
O 	 -3.140625 	 2.338107 	 6.184144 
O 	 6.911553 	 -0.545440 	 -1.215217 
O 	 4.002108 	 -1.790475 	 -0.626293 
O 	 4.212108 	 3.796813 	 2.198280 
O 	 -3.886673 	 5.454389 	 2.741076 
O 	 5.262749 	 -3.787329 	 1.417130 
O 	 4.409937 	 -0.766071 	 -3.754031 
O 	 3.831397 	 -2.713918 	 -5.939508 
O 	 0.744822 	 -6.992413 	 -5.045461 
O 	 -7.564115 	 7.293848 	 3.805791 
O 	 1.924405 	 5.121962 	 2.350674 
O 	 0.884402 	 -7.222718 	 3.804892 
O 	 -5.987579 	 4.430003 	 -0.331934 
O 	 6.291238 	 1.862935 	 2.945119 
O 	 1.782014 	 6.637142 	 -1.008263 
O 	 -0.792612 	 -4.358963 	 1.035495 
O 	 -3.306199 	 6.661273 	 5.537421 
O 	 -3.719441 	 6.302941 	 -1.600501 
O 	 -2.262628 	 -6.616713 	 -3.594604 
O 	 -6.441843 	 7.190665 	 -2.370585 
O 	 3.004497 	 1.082082 	 3.333367 
O 	 6.285619 	 4.098978 	 -2.654792 
O 	 1.353871 	 -2.392521 	 0.126054 
O 	 -0.638243 	 3.231188 	 3.227312 
O 	 2.812974 	 -1.839674 	 2.750889 
O 	 -5.764388 	 -3.112894 	 -3.814238 
O 	 6.053618 	 -1.710879 	 5.873363 
O 	 -2.488891 	 -2.852938 	 -0.368209 
O 	 -6.855997 	 1.125804 	 -3.952123 
O 	 -1.227032 	 4.865940 	 5.725652 
O 	 -2.358423 	 2.207330 	 -5.554791 
O 	 -6.769915 	 1.618815 	 4.908060 
O 	 -0.525980 	 6.005388 	 -3.444139 
K 	 -2.135819 	 -6.044166 	 3.560117 
