333
conformation = 3
H 	 -7.492286 	 -7.225202 	 -7.757161 
H 	 6.722079 	 -5.914919 	 6.877660 
H 	 3.207726 	 7.478148 	 3.558979 
H 	 3.762003 	 6.998022 	 2.225373 
H 	 1.191408 	 5.241014 	 6.060297 
H 	 2.337050 	 5.451611 	 5.116440 
H 	 -1.070149 	 -2.783704 	 -2.978234 
H 	 -1.946456 	 -3.500661 	 -1.921701 
H 	 -1.534813 	 0.148347 	 -1.525519 
H 	 -0.096448 	 -0.300980 	 -2.037868 
H 	 3.484382 	 -4.394416 	 3.554076 
H 	 2.268887 	 -4.523455 	 4.470283 
H 	 5.870992 	 -3.198880 	 3.281100 
H 	 6.379384 	 -4.662991 	 3.470522 
H 	 -5.729929 	 -4.626005 	 5.876328 
H 	 -7.166436 	 -4.058277 	 5.651823 
H 	 -5.836488 	 0.037071 	 1.067387 
H 	 -7.196245 	 -0.656821 	 1.230835 
H 	 -4.064451 	 -6.320640 	 -0.063147 
H 	 -2.505657 	 -6.274825 	 0.154256 
H 	 4.712979 	 5.891985 	 5.458001 
H 	 4.011939 	 7.021521 	 6.306965 
H 	 6.334184 	 5.612533 	 3.628125 
H 	 6.877195 	 4.488600 	 4.405233 
H 	 -5.506490 	 6.018432 	 -7.013600 
H 	 -6.239334 	 5.843423 	 6.565282 
H 	 -2.173598 	 5.164094 	 -3.774748 
H 	 -3.258326 	 4.058538 	 -4.108328 
H 	 -0.343869 	 -4.126853 	 -4.685795 
H 	 -0.030233 	 -4.020224 	 -6.236041 
H 	 -5.828186 	 5.422428 	 -4.596154 
H 	 -5.418808 	 3.997174 	 -5.041895 
H 	 -2.654786 	 -6.662900 	 -6.833667 
H 	 -1.954812 	 -5.354573 	 -6.500392 
H 	 4.711717 	 -4.896658 	 6.895323 
H 	 4.452275 	 -4.391767 	 5.476041 
H 	 -1.879365 	 3.082413 	 -2.117948 
H 	 -2.487655 	 1.864371 	 -2.537201 
H 	 5.860734 	 2.458720 	 -1.619167 
H 	 6.377844 	 1.114685 	 -0.947329 
H 	 -7.090616 	 -3.413374 	 -2.575602 
H 	 6.914034 	 -4.458175 	 -1.873248 
H 	 1.638014 	 -1.733472 	 -3.094574 
H 	 1.078359 	 -2.832193 	 -2.268673 
H 	 2.486702 	 2.628222 	 -2.990089 
H 	 2.705035 	 4.054522 	 -2.418503 
H 	 -6.469365 	 -4.044713 	 0.884205 
H 	 -6.024580 	 -2.548931 	 1.049297 
H 	 1.592588 	 -4.627086 	 7.083937 
H 	 0.762039 	 -3.440314 	 6.638971 
H 	 4.479463 	 3.367679 	 5.558925 
H 	 4.354243 	 2.115668 	 4.747664 
H 	 6.629445 	 -5.825816 	 1.352615 
H 	 -6.821869 	 -6.350307 	 1.498877 
H 	 -2.254828 	 -1.939870 	 4.446246 
H 	 -0.763780 	 -2.082202 	 4.942392 
H 	 -5.943011 	 -1.330935 	 -2.268998 
H 	 -6.061913 	 -0.048320 	 -1.526332 
H 	 -7.288066 	 -2.248848 	 4.144481 
H 	 7.253665 	 -1.634343 	 5.559036 
H 	 -0.599603 	 1.377863 	 5.123444 
H 	 -1.506369 	 0.133201 	 4.725324 
H 	 2.961955 	 4.675228 	 -6.813940 
H 	 4.272075 	 3.977813 	 -7.273930 
H 	 -6.298225 	 3.825090 	 -2.012165 
H 	 -5.223719 	 2.831865 	 -2.275112 
H 	 -2.995460 	 -2.426111 	 -7.670327 
H 	 -2.228621 	 -3.664846 	 6.964594 
H 	 6.177094 	 -2.549102 	 -6.211826 
H 	 6.302336 	 -1.332661 	 -5.253674 
H 	 3.530616 	 2.320929 	 -5.672874 
H 	 4.621265 	 1.407942 	 -5.726466 
H 	 -4.711948 	 -3.183590 	 2.640096 
H 	 -4.960463 	 -2.020314 	 3.607170 
H 	 0.114582 	 0.696905 	 1.537126 
H 	 -0.742156 	 -0.149046 	 2.517022 
H 	 4.024225 	 6.013270 	 -0.811923 
H 	 2.475527 	 5.905103 	 -1.008137 
H 	 -6.178755 	 -4.663269 	 -4.705707 
H 	 -6.526274 	 -5.261703 	 -6.049418 
H 	 3.214674 	 -0.096942 	 -0.756523 
H 	 2.682303 	 1.370631 	 -0.430560 
H 	 4.187160 	 -4.603817 	 -4.880846 
H 	 4.646001 	 -5.334712 	 -3.644604 
H 	 -5.548597 	 -5.200153 	 -1.658952 
H 	 -5.781738 	 -6.664770 	 -1.764580 
H 	 -3.424235 	 -5.400076 	 5.581307 
H 	 -3.456975 	 -4.087773 	 4.707468 
H 	 1.244343 	 0.454815 	 -5.418036 
H 	 0.426931 	 -0.683953 	 -4.732405 
H 	 -1.949256 	 5.928840 	 -6.334585 
H 	 -3.408623 	 5.991152 	 -5.834787 
H 	 1.452798 	 -6.085064 	 -3.176171 
H 	 2.373948 	 -4.880399 	 -3.079113 
H 	 -7.487757 	 4.246120 	 1.928853 
H 	 -6.020934 	 4.512853 	 2.115725 
H 	 2.538612 	 0.770842 	 7.039799 
H 	 3.694712 	 -0.347776 	 7.106028 
H 	 -0.323945 	 3.717690 	 -6.801159 
H 	 0.266108 	 2.610913 	 -7.663649 
H 	 -6.420405 	 1.223165 	 -5.066571 
H 	 -5.767543 	 0.352587 	 -6.127238 
H 	 -5.447778 	 3.373662 	 6.509237 
H 	 -6.448634 	 2.968325 	 -7.278553 
H 	 -5.392133 	 -5.957428 	 3.539781 
H 	 -6.519115 	 -6.968633 	 3.377598 
H 	 -0.604072 	 6.938799 	 6.117156 
H 	 -0.880862 	 -6.604502 	 6.853313 
H 	 3.148270 	 6.509051 	 -3.659148 
H 	 1.767980 	 6.064828 	 -4.172837 
H 	 -0.061918 	 2.071372 	 -0.104946 
H 	 0.526399 	 3.345154 	 -0.515690 
H 	 -3.534714 	 2.370847 	 3.247491 
H 	 -5.008886 	 1.886377 	 3.390702 
H 	 3.224044 	 -5.987522 	 -1.285389 
H 	 4.601364 	 -6.777412 	 -1.433456 
H 	 -1.828464 	 0.054033 	 6.781590 
H 	 -1.139911 	 0.347261 	 -6.817328 
H 	 4.069735 	 -1.469378 	 3.541130 
H 	 5.333997 	 -0.585180 	 3.241726 
H 	 0.199945 	 -5.097400 	 5.241241 
H 	 0.773572 	 -6.088597 	 4.202054 
H 	 0.058523 	 -5.360988 	 -1.077915 
H 	 -1.253277 	 -5.752806 	 -1.657115 
H 	 1.117359 	 3.134179 	 4.967563 
H 	 1.510061 	 1.863854 	 4.134711 
H 	 -1.165615 	 5.741380 	 0.637812 
H 	 -1.513638 	 4.731353 	 1.819865 
H 	 7.140347 	 4.825572 	 -7.054066 
H 	 6.172130 	 6.027947 	 -6.553014 
H 	 -3.275919 	 -0.970403 	 -2.739883 
H 	 -3.681588 	 -1.264676 	 -1.383202 
H 	 1.196800 	 -1.078904 	 6.418470 
H 	 -0.233536 	 -1.136517 	 6.912583 
H 	 6.243891 	 6.401837 	 0.750884 
H 	 5.442676 	 5.068773 	 1.084166 
H 	 -4.268168 	 2.118042 	 1.071225 
H 	 -3.456869 	 2.141784 	 -0.361605 
H 	 -5.916390 	 -2.350968 	 7.091101 
H 	 -4.828592 	 -2.053067 	 -6.685415 
H 	 -4.482600 	 0.080041 	 5.431567 
H 	 -4.322284 	 -1.270824 	 6.167657 
H 	 0.334442 	 -6.020607 	 0.873652 
H 	 1.744083 	 -6.552867 	 1.321460 
H 	 6.287113 	 -6.992833 	 -3.735232 
H 	 6.326155 	 -6.788890 	 -5.315846 
H 	 0.127162 	 6.249112 	 -6.154291 
H 	 -0.170468 	 5.202770 	 -4.979137 
H 	 6.163674 	 0.533101 	 -7.211402 
H 	 6.016910 	 1.932169 	 -7.738910 
H 	 -3.270044 	 0.189926 	 1.236472 
H 	 -3.256631 	 -0.947918 	 2.312409 
H 	 2.712677 	 -6.677472 	 -6.472221 
H 	 1.899712 	 -6.751497 	 7.107452 
H 	 -2.522573 	 -2.465337 	 -4.803159 
H 	 -2.547422 	 -1.183156 	 -5.616878 
H 	 -3.208459 	 3.659683 	 5.563151 
H 	 -3.213065 	 2.103229 	 5.655838 
H 	 6.134493 	 -1.493935 	 -0.288842 
H 	 4.988450 	 -1.016705 	 0.721780 
H 	 2.455617 	 -2.715245 	 -0.149239 
H 	 3.771463 	 -2.933626 	 -0.903139 
H 	 4.782169 	 2.765315 	 0.659317 
H 	 4.843928 	 2.683687 	 2.161832 
H 	 -4.578929 	 6.532729 	 1.811753 
H 	 -3.465616 	 5.481033 	 1.829473 
H 	 4.379779 	 -5.485441 	 1.166155 
H 	 4.811814 	 -4.008249 	 0.911157 
H 	 3.880827 	 -1.213561 	 -3.236947 
H 	 3.350401 	 0.212049 	 -3.563345 
H 	 2.464570 	 -2.311983 	 -5.500103 
H 	 2.890061 	 -2.367634 	 -6.895378 
H 	 -0.188460 	 7.239973 	 -3.967451 
H 	 -0.941038 	 -6.364553 	 -4.137362 
H 	 6.162825 	 -7.199645 	 4.622841 
H 	 5.598383 	 -7.190827 	 3.210468 
H 	 1.471695 	 4.044088 	 1.671345 
H 	 2.919349 	 4.383293 	 1.736710 
H 	 0.015178 	 6.324377 	 2.453025 
H 	 0.442259 	 6.356939 	 3.914949 
H 	 7.271058 	 3.798302 	 -0.242393 
H 	 -6.232614 	 4.450469 	 -0.052025 
H 	 6.350591 	 1.203977 	 1.694119 
H 	 6.770538 	 1.465067 	 3.175893 
H 	 0.479567 	 6.695430 	 -1.442614 
H 	 0.183806 	 5.263392 	 -2.009901 
H 	 -1.244512 	 -3.793757 	 2.528734 
H 	 -2.164194 	 -3.865578 	 1.255726 
H 	 -4.558666 	 6.372584 	 6.004362 
H 	 -4.302789 	 6.060888 	 4.435971 
H 	 -3.351414 	 6.196381 	 -0.528408 
H 	 -3.642265 	 5.129222 	 -1.635760 
H 	 -3.017707 	 7.310552 	 -3.652588 
H 	 -3.809848 	 -6.527689 	 -2.942080 
H 	 6.822111 	 -6.958330 	 -0.840602 
H 	 7.025000 	 6.608561 	 -1.691227 
H 	 2.634052 	 0.379346 	 2.555920 
H 	 2.714448 	 1.814564 	 1.988954 
H 	 5.822465 	 4.622172 	 -3.709809 
H 	 7.276513 	 4.081831 	 -3.924911 
H 	 -0.091583 	 -2.018406 	 0.008216 
H 	 0.082856 	 -3.394675 	 0.680345 
H 	 -1.085285 	 2.410813 	 2.704860 
H 	 -1.314086 	 3.499502 	 3.825120 
H 	 1.591610 	 -1.155510 	 3.636245 
H 	 1.713492 	 -2.318069 	 2.627716 
H 	 -6.507667 	 -2.202899 	 -4.884674 
H 	 -5.004785 	 -2.224071 	 -4.427460 
H 	 5.158410 	 -2.556604 	 6.527625 
H 	 5.120473 	 -1.436886 	 5.540816 
H 	 -3.016052 	 -2.102153 	 0.296150 
H 	 -4.128547 	 -3.254324 	 0.081912 
H 	 6.264701 	 1.425684 	 -3.695945 
H 	 6.978894 	 0.103081 	 -3.239514 
H 	 -1.475655 	 4.513692 	 6.660929 
H 	 -2.419844 	 5.467604 	 5.833683 
H 	 -3.666703 	 1.316876 	 -4.879577 
H 	 -2.324468 	 1.898690 	 -5.574956 
H 	 -6.687014 	 0.156378 	 4.388973 
H 	 -6.833968 	 1.437448 	 5.248800 
H 	 0.457519 	 4.101400 	 -3.565882 
O 	 6.568261 	 -6.874952 	 6.739061 
O 	 3.691811 	 -7.088568 	 2.770443 
O 	 1.395114 	 5.174330 	 5.093817 
O 	 -1.988903 	 -3.033880 	 -2.792815 
O 	 -0.611230 	 -0.020611 	 -1.261644 
O 	 3.238959 	 -4.718029 	 4.429005 
O 	 6.686590 	 -3.729526 	 3.415564 
O 	 -6.553419 	 -4.341815 	 6.367120 
O 	 -6.269732 	 -0.670212 	 1.572325 
O 	 -3.333219 	 -6.617515 	 0.571960 
O 	 3.999068 	 6.556829 	 5.452463 
O 	 6.057736 	 4.992408 	 4.331308 
O 	 -5.818322 	 6.505928 	 7.126142 
O 	 -3.169910 	 4.961027 	 -3.683148 
O 	 -0.760108 	 -3.968706 	 -5.554910 
O 	 -5.941862 	 4.784601 	 -5.303276 
O 	 -2.471436 	 -5.742771 	 -7.246577 
O 	 5.150902 	 -4.386077 	 6.207178 
O 	 -2.346285 	 2.338380 	 -1.713281 
O 	 6.186890 	 2.064798 	 -0.781620 
O 	 -7.162863 	 -3.928655 	 -1.754393 
O 	 0.895233 	 -2.367242 	 -3.108986 
O 	 2.201957 	 3.217695 	 -2.262666 
O 	 -5.726174 	 -3.464671 	 1.111523 
O 	 0.674355 	 -4.387369 	 6.894192 
O 	 4.991918 	 2.598621 	 5.298525 
O 	 7.386682 	 -6.077034 	 0.840402 
O 	 -1.329872 	 -1.953265 	 4.143449 
O 	 -6.600987 	 -0.802694 	 -1.822179 
O 	 -7.025252 	 -1.573104 	 4.792648 
O 	 -1.502012 	 0.962073 	 5.259117 
O 	 3.273024 	 3.873155 	 -7.245994 
O 	 -5.875328 	 3.345356 	 -2.762760 
O 	 -2.990317 	 -3.177757 	 6.608423 
O 	 6.469611 	 -2.305627 	 -5.307843 
O 	 4.004623 	 1.725970 	 -5.037697 
O 	 -4.271277 	 -2.656545 	 3.349552 
O 	 -0.105673 	 0.601153 	 2.488405 
O 	 3.293669 	 6.179531 	 -1.480432 
O 	 -6.422318 	 -5.532886 	 -5.120149 
O 	 3.001776 	 0.547048 	 -0.037094 
O 	 4.361170 	 -4.455507 	 -3.941476 
O 	 -5.082737 	 -6.039220 	 -1.523133 
O 	 -3.650828 	 -5.036647 	 4.710682 
O 	 0.489482 	 -0.145380 	 -5.517170 
O 	 -2.874309 	 6.258883 	 -6.621014 
O 	 1.731710 	 -5.418395 	 -2.539259 
O 	 -6.825464 	 4.274238 	 2.646145 
O 	 2.752169 	 -0.159675 	 -7.594806 
O 	 -0.479995 	 2.759244 	 -7.055461 
O 	 -5.554096 	 1.148197 	 -5.580626 
O 	 -6.397553 	 3.409200 	 6.737241 
O 	 -5.760555 	 -6.600325 	 2.889108 
O 	 -0.188744 	 -7.143366 	 6.391783 
O 	 2.649644 	 6.367560 	 -4.471251 
O 	 0.467693 	 2.780514 	 0.294198 
O 	 -4.225341 	 1.872915 	 2.800140 
O 	 4.198063 	 -5.885879 	 -1.371137 
O 	 -1.602412 	 -0.394373 	 -7.269288 
O 	 5.040119 	 -1.424379 	 3.660263 
O 	 0.252597 	 -5.273400 	 4.283519 
O 	 -0.895938 	 -5.147653 	 -0.996008 
O 	 1.266506 	 2.151719 	 5.061129 
O 	 -1.465929 	 5.692721 	 1.571713 
O 	 6.217712 	 5.131779 	 -6.979809 
O 	 -3.515830 	 -0.466278 	 -1.933385 
O 	 0.425749 	 -1.681611 	 6.373815 
O 	 5.341187 	 6.024118 	 0.908849 
O 	 -4.153123 	 1.720562 	 0.173345 
O 	 -5.607483 	 -1.695364 	 -7.181275 
O 	 -3.937315 	 -0.736930 	 5.483526 
O 	 1.307748 	 -5.897432 	 0.716392 
O 	 5.862779 	 7.616282 	 -4.564482 
O 	 -0.375259 	 5.437005 	 -6.034395 
O 	 6.181379 	 1.441540 	 -6.897615 
O 	 -2.734927 	 -0.555456 	 1.575298 
O 	 2.829991 	 -6.785496 	 -7.448991 
O 	 -3.149604 	 -1.891051 	 -5.291641 
O 	 -3.811963 	 2.879183 	 5.574081 
O 	 5.842971 	 -0.766716 	 0.337833 
O 	 3.239929 	 -2.220425 	 -0.521525 
O 	 4.723947 	 3.344903 	 1.444197 
O 	 -4.246400 	 5.777385 	 2.336234 
O 	 4.590037 	 -4.657382 	 1.613897 
O 	 3.156467 	 -0.583481 	 -3.012850 
O 	 2.917742 	 -2.949743 	 -6.092919 
O 	 -0.093717 	 -6.766530 	 -4.339318 
O 	 6.441090 	 -7.019623 	 3.708281 
O 	 2.070887 	 4.702025 	 2.050130 
O 	 0.208715 	 6.957070 	 3.178629 
O 	 -7.149060 	 4.657367 	 -0.275449 
O 	 6.016207 	 1.181245 	 2.608768 
O 	 0.344294 	 5.756024 	 -1.173516 
O 	 -1.438792 	 -4.334126 	 1.726169 
O 	 -3.881725 	 6.257171 	 5.295078 
O 	 -3.468612 	 5.243729 	 -0.688506 
O 	 -2.954937 	 -6.706756 	 -3.354010 
O 	 6.572230 	 7.488182 	 -1.654929 
O 	 2.647737 	 1.314534 	 2.803462 
O 	 6.426915 	 3.890254 	 -3.485545 
O 	 0.583098 	 -2.546404 	 0.479389 
O 	 -1.480800 	 3.286689 	 2.910041 
O 	 2.146634 	 -1.934195 	 3.418003 
O 	 -5.884412 	 -2.608352 	 -4.247494 
O 	 5.243205 	 -1.558557 	 6.496707 
O 	 -3.250591 	 -2.904942 	 -0.236239 
O 	 6.656317 	 0.587688 	 -4.040541 
O 	 -1.625681 	 4.896808 	 5.775895 
O 	 -2.794851 	 1.743885 	 -4.716160 
O 	 -6.532249 	 1.132333 	 4.396148 
O 	 -0.099103 	 4.917473 	 -3.607813 
K 	 -2.253854 	 -6.815419 	 3.411720 
